/*---------------------------------------------------------------------------*\
| =========                 |                                                 |
| \\      /  F ield         | OpenFOAM: The Open Source CFD Toolbox           |
|  \\    /   O peration     | Version:  4.1                                   |
|   \\  /    A nd           | Web:      www.OpenFOAM.org                      |
|    \\/     M anipulation  |                                                 |
\*---------------------------------------------------------------------------*/
Build  : 4.1
Exec   : pisoFoam
Date   : Feb 23 2019
Time   : 05:46:40
Host   : "caelinux"
PID    : 6119
Case   : /home/caelinux/Downloads/experimental-meshes/brentscavity2
nProcs : 1
sigFpe : Enabling floating point exception trapping (FOAM_SIGFPE).
fileModificationChecking : Monitoring run-time modified files using timeStampMaster
allowSystemOperations : Allowing user-supplied system call operations

// * * * * * * * * * * * * * * * * * * * * * * * * * * * * * * * * * * * * * //
Create time

Create mesh for time = 0


PISO: Operating solver in PISO mode

Reading field p

Reading field U

Reading/calculating face flux field phi

Selecting incompressible transport model Newtonian
Selecting turbulence model type RAS
Selecting RAS turbulence model LRR
LRRCoeffs
{
    couplingFactor  0;
    Cmu             0.09;
    C1              1.8;
    C2              0.6;
    Ceps1           1.44;
    Ceps2           1.92;
    Cs              0.25;
    Ceps            0.15;
    wallReflection  true;
    kappa           0.41;
    Cref1           0.5;
    Cref2           0.3;
}

bounding epsilon, min: 0 max: 31904.8 average: 31904.8
No MRF models present

No finite volume options present


Starting time loop

Time = 0.005

Courant Number mean: 4.05059e-06 max: 0.0431034
smoothSolver:  Solving for Ux, Initial residual = 1, Final residual = 6.65963e-07, No Iterations 1
smoothSolver:  Solving for Uy, Initial residual = 1, Final residual = 8.67741e-07, No Iterations 1
smoothSolver:  Solving for Uz, Initial residual = 1, Final residual = 8.67741e-07, No Iterations 1
GAMG:  Solving for p, Initial residual = 1, Final residual = 0.076052, No Iterations 6
time step continuity errors : sum local = 6.16111e-07, global = -1.40178e-07, cumulative = -1.40178e-07
GAMG:  Solving for p, Initial residual = 0.0107274, Final residual = 9.57768e-07, No Iterations 9
time step continuity errors : sum local = 6.46358e-09, global = -1.30118e-09, cumulative = -1.41479e-07
ExecutionTime = 11.19 s  ClockTime = 12 s

Time = 0.01

Courant Number mean: 0.00415348 max: 0.255523
smoothSolver:  Solving for Ux, Initial residual = 0.328218, Final residual = 3.05644e-06, No Iterations 4
smoothSolver:  Solving for Uy, Initial residual = 0.183005, Final residual = 3.18153e-06, No Iterations 4
smoothSolver:  Solving for Uz, Initial residual = 0.266312, Final residual = 3.97355e-06, No Iterations 4
GAMG:  Solving for p, Initial residual = 0.00704057, Final residual = 0.000661995, No Iterations 3
time step continuity errors : sum local = 4.59032e-06, global = 8.92641e-07, cumulative = 7.51162e-07
GAMG:  Solving for p, Initial residual = 0.0366236, Final residual = 8.34669e-07, No Iterations 12
time step continuity errors : sum local = 1.28121e-09, global = 2.89794e-10, cumulative = 7.51452e-07
ExecutionTime = 16.55 s  ClockTime = 18 s

Time = 0.015

Courant Number mean: 0.0041577 max: 0.271698
smoothSolver:  Solving for Ux, Initial residual = 0.0398431, Final residual = 1.24512e-06, No Iterations 4
smoothSolver:  Solving for Uy, Initial residual = 0.104173, Final residual = 1.96669e-06, No Iterations 4
smoothSolver:  Solving for Uz, Initial residual = 0.0397283, Final residual = 1.29853e-06, No Iterations 4
GAMG:  Solving for p, Initial residual = 0.0227018, Final residual = 0.00153436, No Iterations 3
time step continuity errors : sum local = 1.34378e-06, global = 1.22983e-07, cumulative = 8.74435e-07
GAMG:  Solving for p, Initial residual = 0.0401102, Final residual = 7.72685e-07, No Iterations 13
time step continuity errors : sum local = 3.56778e-10, global = 6.78706e-11, cumulative = 8.74503e-07
ExecutionTime = 22.09 s  ClockTime = 24 s

Time = 0.02

Courant Number mean: 0.00415701 max: 0.270039
smoothSolver:  Solving for Ux, Initial residual = 0.00933923, Final residual = 3.61153e-06, No Iterations 3
smoothSolver:  Solving for Uy, Initial residual = 0.0720394, Final residual = 1.36257e-06, No Iterations 4
smoothSolver:  Solving for Uz, Initial residual = 0.00892874, Final residual = 3.73168e-06, No Iterations 3
GAMG:  Solving for p, Initial residual = 0.0660795, Final residual = 0.00581705, No Iterations 1
time step continuity errors : sum local = 1.39056e-06, global = 9.57278e-09, cumulative = 8.84076e-07
GAMG:  Solving for p, Initial residual = 0.0157115, Final residual = 7.46631e-07, No Iterations 13
time step continuity errors : sum local = 1.58553e-10, global = 2.99048e-11, cumulative = 8.84106e-07
ExecutionTime = 27.32 s  ClockTime = 29 s

Time = 0.025

Courant Number mean: 0.00415682 max: 0.262526
smoothSolver:  Solving for Ux, Initial residual = 0.00546583, Final residual = 2.02645e-06, No Iterations 3
smoothSolver:  Solving for Uy, Initial residual = 0.0550108, Final residual = 9.17005e-07, No Iterations 4
smoothSolver:  Solving for Uz, Initial residual = 0.00123134, Final residual = 5.53314e-06, No Iterations 2
GAMG:  Solving for p, Initial residual = 0.203308, Final residual = 0.00461928, No Iterations 2
time step continuity errors : sum local = 3.04004e-07, global = -5.5955e-10, cumulative = 8.83546e-07
GAMG:  Solving for p, Initial residual = 0.0223464, Final residual = 7.08373e-07, No Iterations 14
time step continuity errors : sum local = 3.96409e-11, global = 6.26795e-12, cumulative = 8.83553e-07
ExecutionTime = 32.72 s  ClockTime = 35 s

Time = 0.03

Courant Number mean: 0.00415686 max: 0.254292
smoothSolver:  Solving for Ux, Initial residual = 0.00548033, Final residual = 1.96581e-06, No Iterations 3
smoothSolver:  Solving for Uy, Initial residual = 0.044494, Final residual = 6.41114e-07, No Iterations 4
smoothSolver:  Solving for Uz, Initial residual = 0.00152819, Final residual = 6.74473e-06, No Iterations 2
GAMG:  Solving for p, Initial residual = 0.0866546, Final residual = 0.00720455, No Iterations 1
time step continuity errors : sum local = 6.35253e-07, global = -7.71305e-11, cumulative = 8.83475e-07
GAMG:  Solving for p, Initial residual = 0.0101661, Final residual = 5.53428e-07, No Iterations 12
time step continuity errors : sum local = 4.61398e-11, global = -9.75527e-12, cumulative = 8.83466e-07
ExecutionTime = 37.86 s  ClockTime = 40 s

Time = 0.035

Courant Number mean: 0.0041575 max: 0.247756
smoothSolver:  Solving for Ux, Initial residual = 0.00443586, Final residual = 1.6021e-06, No Iterations 3
smoothSolver:  Solving for Uy, Initial residual = 0.037352, Final residual = 6.48235e-06, No Iterations 3
smoothSolver:  Solving for Uz, Initial residual = 0.0009371, Final residual = 3.86417e-06, No Iterations 2
GAMG:  Solving for p, Initial residual = 0.0700712, Final residual = 0.00234681, No Iterations 2
time step continuity errors : sum local = 1.61926e-07, global = -4.82929e-11, cumulative = 8.83417e-07
GAMG:  Solving for p, Initial residual = 0.00629721, Final residual = 9.13163e-07, No Iterations 12
time step continuity errors : sum local = 6.14371e-11, global = -8.94238e-12, cumulative = 8.83408e-07
ExecutionTime = 43.04 s  ClockTime = 46 s

Time = 0.04

Courant Number mean: 0.00415841 max: 0.242444
smoothSolver:  Solving for Ux, Initial residual = 0.00174092, Final residual = 7.36709e-06, No Iterations 2
smoothSolver:  Solving for Uy, Initial residual = 0.0321874, Final residual = 5.6002e-06, No Iterations 3
smoothSolver:  Solving for Uz, Initial residual = 0.000662967, Final residual = 2.5553e-06, No Iterations 2
GAMG:  Solving for p, Initial residual = 0.0661473, Final residual = 0.00170393, No Iterations 2
time step continuity errors : sum local = 8.31624e-08, global = 5.57555e-11, cumulative = 8.83464e-07
GAMG:  Solving for p, Initial residual = 0.00499126, Final residual = 5.02168e-07, No Iterations 12
time step continuity errors : sum local = 2.40395e-11, global = -3.96614e-12, cumulative = 8.8346e-07
ExecutionTime = 48.21 s  ClockTime = 51 s

Time = 0.045

Courant Number mean: 0.00415939 max: 0.237885
smoothSolver:  Solving for Ux, Initial residual = 0.00102199, Final residual = 3.71568e-06, No Iterations 2
smoothSolver:  Solving for Uy, Initial residual = 0.0282773, Final residual = 4.46039e-06, No Iterations 3
smoothSolver:  Solving for Uz, Initial residual = 0.000591635, Final residual = 2.19824e-06, No Iterations 2
GAMG:  Solving for p, Initial residual = 0.0601347, Final residual = 0.00426305, No Iterations 1
time step continuity errors : sum local = 1.74506e-07, global = -1.68156e-15, cumulative = 8.8346e-07
GAMG:  Solving for p, Initial residual = 0.00551966, Final residual = 8.55408e-07, No Iterations 10
time step continuity errors : sum local = 3.38208e-11, global = 7.06502e-12, cumulative = 8.83467e-07
ExecutionTime = 53.06 s  ClockTime = 56 s

Time = 0.05

Courant Number mean: 0.00416042 max: 0.233701
smoothSolver:  Solving for Ux, Initial residual = 0.000784082, Final residual = 2.49389e-06, No Iterations 2
smoothSolver:  Solving for Uy, Initial residual = 0.0252138, Final residual = 3.0377e-06, No Iterations 3
smoothSolver:  Solving for Uz, Initial residual = 0.00050707, Final residual = 1.75063e-06, No Iterations 2
GAMG:  Solving for p, Initial residual = 0.0546896, Final residual = 0.00403216, No Iterations 1
time step continuity errors : sum local = 1.55593e-07, global = 1.79163e-11, cumulative = 8.83485e-07
GAMG:  Solving for p, Initial residual = 0.00477208, Final residual = 7.37469e-07, No Iterations 10
time step continuity errors : sum local = 2.73677e-11, global = 5.57163e-12, cumulative = 8.83491e-07
ExecutionTime = 57.93 s  ClockTime = 61 s

Time = 0.055

Courant Number mean: 0.00416142 max: 0.229796
smoothSolver:  Solving for Ux, Initial residual = 0.000772139, Final residual = 2.4175e-06, No Iterations 2
smoothSolver:  Solving for Uy, Initial residual = 0.0227488, Final residual = 2.41526e-06, No Iterations 3
smoothSolver:  Solving for Uz, Initial residual = 0.000442869, Final residual = 1.42968e-06, No Iterations 2
GAMG:  Solving for p, Initial residual = 0.0489968, Final residual = 0.00255364, No Iterations 1
time step continuity errors : sum local = 9.38172e-08, global = 5.79169e-12, cumulative = 8.83497e-07
GAMG:  Solving for p, Initial residual = 0.00334974, Final residual = 8.44362e-07, No Iterations 9
time step continuity errors : sum local = 3.01064e-11, global = 6.78871e-12, cumulative = 8.83503e-07
ExecutionTime = 62.72 s  ClockTime = 66 s

Time = 0.06

Courant Number mean: 0.00416245 max: 0.226097
smoothSolver:  Solving for Ux, Initial residual = 0.000731392, Final residual = 2.17834e-06, No Iterations 2
smoothSolver:  Solving for Uy, Initial residual = 0.0207227, Final residual = 2.06685e-06, No Iterations 3
smoothSolver:  Solving for Uz, Initial residual = 0.000411435, Final residual = 1.24935e-06, No Iterations 2
GAMG:  Solving for p, Initial residual = 0.0440555, Final residual = 0.00227009, No Iterations 1
time step continuity errors : sum local = 7.92882e-08, global = 8.93775e-12, cumulative = 8.83512e-07
GAMG:  Solving for p, Initial residual = 0.00304343, Final residual = 4.75902e-07, No Iterations 10
time step continuity errors : sum local = 1.61823e-11, global = -3.15336e-12, cumulative = 8.83509e-07
ExecutionTime = 67.55 s  ClockTime = 71 s

Time = 0.065

Courant Number mean: 0.00416348 max: 0.222901
smoothSolver:  Solving for Ux, Initial residual = 0.000682272, Final residual = 1.8754e-06, No Iterations 2
smoothSolver:  Solving for Uy, Initial residual = 0.0190279, Final residual = 1.82549e-06, No Iterations 3
smoothSolver:  Solving for Uz, Initial residual = 0.000375576, Final residual = 1.0446e-06, No Iterations 2
GAMG:  Solving for p, Initial residual = 0.0405236, Final residual = 0.00224698, No Iterations 1
time step continuity errors : sum local = 7.42037e-08, global = -1.27408e-11, cumulative = 8.83496e-07
GAMG:  Solving for p, Initial residual = 0.00302624, Final residual = 9.60742e-07, No Iterations 9
time step continuity errors : sum local = 3.09463e-11, global = -6.04871e-12, cumulative = 8.8349e-07
ExecutionTime = 72.25 s  ClockTime = 76 s

Time = 0.07

Courant Number mean: 0.0041645 max: 0.220826
smoothSolver:  Solving for Ux, Initial residual = 0.000626879, Final residual = 1.57794e-06, No Iterations 2
smoothSolver:  Solving for Uy, Initial residual = 0.0175893, Final residual = 1.68232e-06, No Iterations 3
smoothSolver:  Solving for Uz, Initial residual = 0.000344224, Final residual = 8.70862e-07, No Iterations 2
GAMG:  Solving for p, Initial residual = 0.0376945, Final residual = 0.00222272, No Iterations 1
time step continuity errors : sum local = 6.91726e-08, global = -8.18018e-12, cumulative = 8.83482e-07
GAMG:  Solving for p, Initial residual = 0.00292098, Final residual = 9.43767e-07, No Iterations 9
time step continuity errors : sum local = 2.86984e-11, global = -5.58003e-12, cumulative = 8.83477e-07
ExecutionTime = 76.92 s  ClockTime = 81 s

Time = 0.075

Courant Number mean: 0.00416551 max: 0.21883
smoothSolver:  Solving for Ux, Initial residual = 0.000579096, Final residual = 1.34124e-06, No Iterations 2
smoothSolver:  Solving for Uy, Initial residual = 0.0163528, Final residual = 1.60243e-06, No Iterations 3
smoothSolver:  Solving for Uz, Initial residual = 0.000316971, Final residual = 7.37951e-07, No Iterations 2
GAMG:  Solving for p, Initial residual = 0.0354957, Final residual = 0.0021228, No Iterations 1
time step continuity errors : sum local = 6.2444e-08, global = -4.63977e-12, cumulative = 8.83472e-07
GAMG:  Solving for p, Initial residual = 0.0027653, Final residual = 7.96184e-07, No Iterations 9
time step continuity errors : sum local = 2.29106e-11, global = -4.49086e-12, cumulative = 8.83467e-07
ExecutionTime = 81.64 s  ClockTime = 86 s

Time = 0.08

Courant Number mean: 0.00416651 max: 0.216915
smoothSolver:  Solving for Ux, Initial residual = 0.000544449, Final residual = 1.18683e-06, No Iterations 2
smoothSolver:  Solving for Uy, Initial residual = 0.0152786, Final residual = 1.54838e-06, No Iterations 3
smoothSolver:  Solving for Uz, Initial residual = 0.000296439, Final residual = 6.48495e-07, No Iterations 2
GAMG:  Solving for p, Initial residual = 0.0333229, Final residual = 0.00193211, No Iterations 1
time step continuity errors : sum local = 5.38675e-08, global = -2.86099e-12, cumulative = 8.83465e-07
GAMG:  Solving for p, Initial residual = 0.00265055, Final residual = 6.73583e-07, No Iterations 9
time step continuity errors : sum local = 1.8392e-11, global = -3.59755e-12, cumulative = 8.83461e-07
ExecutionTime = 86.37 s  ClockTime = 91 s

Time = 0.085

Courant Number mean: 0.00416751 max: 0.215091
smoothSolver:  Solving for Ux, Initial residual = 0.000520354, Final residual = 1.07965e-06, No Iterations 2
smoothSolver:  Solving for Uy, Initial residual = 0.0143365, Final residual = 1.47833e-06, No Iterations 3
smoothSolver:  Solving for Uz, Initial residual = 0.00028117, Final residual = 5.86737e-07, No Iterations 2
GAMG:  Solving for p, Initial residual = 0.0315143, Final residual = 0.00183671, No Iterations 1
time step continuity errors : sum local = 4.87653e-08, global = -1.64758e-12, cumulative = 8.83459e-07
GAMG:  Solving for p, Initial residual = 0.0024752, Final residual = 6.01086e-07, No Iterations 9
time step continuity errors : sum local = 1.56446e-11, global = -3.05804e-12, cumulative = 8.83456e-07
ExecutionTime = 91.11 s  ClockTime = 96 s

Time = 0.09

Courant Number mean: 0.00416851 max: 0.213364
smoothSolver:  Solving for Ux, Initial residual = 0.000501883, Final residual = 1.00978e-06, No Iterations 2
smoothSolver:  Solving for Uy, Initial residual = 0.0135038, Final residual = 1.38738e-06, No Iterations 3
smoothSolver:  Solving for Uz, Initial residual = 0.000268837, Final residual = 5.43948e-07, No Iterations 2
GAMG:  Solving for p, Initial residual = 0.0291124, Final residual = 0.00165596, No Iterations 1
time step continuity errors : sum local = 4.20562e-08, global = -1.61745e-12, cumulative = 8.83455e-07
GAMG:  Solving for p, Initial residual = 0.00214945, Final residual = 9.74589e-07, No Iterations 8
time step continuity errors : sum local = 2.43266e-11, global = -4.44313e-12, cumulative = 8.8345e-07
ExecutionTime = 95.81 s  ClockTime = 101 s

Time = 0.095

Courant Number mean: 0.00416953 max: 0.211714
smoothSolver:  Solving for Ux, Initial residual = 0.000487556, Final residual = 9.40832e-07, No Iterations 2
smoothSolver:  Solving for Uy, Initial residual = 0.0127623, Final residual = 1.30257e-06, No Iterations 3
smoothSolver:  Solving for Uz, Initial residual = 0.000259906, Final residual = 5.02589e-07, No Iterations 2
GAMG:  Solving for p, Initial residual = 0.0286267, Final residual = 0.00177174, No Iterations 1
time step continuity errors : sum local = 4.3339e-08, global = -4.86037e-12, cumulative = 8.83445e-07
GAMG:  Solving for p, Initial residual = 0.00233448, Final residual = 9.90331e-07, No Iterations 8
time step continuity errors : sum local = 2.38178e-11, global = -4.26979e-12, cumulative = 8.83441e-07
ExecutionTime = 100.51 s  ClockTime = 106 s

Time = 0.1

Courant Number mean: 0.00417056 max: 0.21014
smoothSolver:  Solving for Ux, Initial residual = 0.000474568, Final residual = 8.88617e-07, No Iterations 2
smoothSolver:  Solving for Uy, Initial residual = 0.0120981, Final residual = 1.23646e-06, No Iterations 3
smoothSolver:  Solving for Uz, Initial residual = 0.000250602, Final residual = 9.42487e-06, No Iterations 1
GAMG:  Solving for p, Initial residual = 0.026944, Final residual = 0.00177223, No Iterations 1
time step continuity errors : sum local = 4.1791e-08, global = -2.86762e-12, cumulative = 8.83438e-07
GAMG:  Solving for p, Initial residual = 0.00231169, Final residual = 5.08018e-07, No Iterations 9
time step continuity errors : sum local = 1.17843e-11, global = -1.99471e-12, cumulative = 8.83436e-07
ExecutionTime = 105.26 s  ClockTime = 111 s

Time = 0.105

Courant Number mean: 0.00417161 max: 0.208521
smoothSolver:  Solving for Ux, Initial residual = 0.000471104, Final residual = 8.43338e-07, No Iterations 2
smoothSolver:  Solving for Uy, Initial residual = 0.0114995, Final residual = 1.15514e-06, No Iterations 3
smoothSolver:  Solving for Uz, Initial residual = 0.000248667, Final residual = 8.9849e-06, No Iterations 1
GAMG:  Solving for p, Initial residual = 0.0260627, Final residual = 0.00176623, No Iterations 1
time step continuity errors : sum local = 4.00414e-08, global = 8.14117e-13, cumulative = 8.83437e-07
GAMG:  Solving for p, Initial residual = 0.00224389, Final residual = 8.30483e-07, No Iterations 8
time step continuity errors : sum local = 1.85151e-11, global = -7.83571e-13, cumulative = 8.83436e-07
ExecutionTime = 110.06 s  ClockTime = 116 s

Time = 0.11

Courant Number mean: 0.00417266 max: 0.207061
smoothSolver:  Solving for Ux, Initial residual = 0.000453798, Final residual = 8.04153e-07, No Iterations 2
smoothSolver:  Solving for Uy, Initial residual = 0.0109574, Final residual = 1.08347e-06, No Iterations 3
smoothSolver:  Solving for Uz, Initial residual = 0.00023523, Final residual = 8.46615e-06, No Iterations 1
GAMG:  Solving for p, Initial residual = 0.0241258, Final residual = 0.00152669, No Iterations 1
time step continuity errors : sum local = 3.34949e-08, global = 1.08785e-12, cumulative = 8.83437e-07
GAMG:  Solving for p, Initial residual = 0.00192817, Final residual = 7.27304e-07, No Iterations 8
time step continuity errors : sum local = 1.57113e-11, global = -2.15878e-12, cumulative = 8.83435e-07
ExecutionTime = 114.64 s  ClockTime = 121 s

Time = 0.115

Courant Number mean: 0.00417374 max: 0.205681
smoothSolver:  Solving for Ux, Initial residual = 0.000441746, Final residual = 7.74281e-07, No Iterations 2
smoothSolver:  Solving for Uy, Initial residual = 0.0104641, Final residual = 1.02504e-06, No Iterations 3
smoothSolver:  Solving for Uz, Initial residual = 0.00022768, Final residual = 8.1174e-06, No Iterations 1
GAMG:  Solving for p, Initial residual = 0.0234551, Final residual = 0.00161005, No Iterations 1
time step continuity errors : sum local = 3.4199e-08, global = -3.15588e-12, cumulative = 8.83432e-07
GAMG:  Solving for p, Initial residual = 0.00194552, Final residual = 6.02144e-07, No Iterations 8
time step continuity errors : sum local = 1.25921e-11, global = 1.04299e-12, cumulative = 8.83433e-07
ExecutionTime = 119.28 s  ClockTime = 126 s

Time = 0.12

Courant Number mean: 0.0041748 max: 0.204414
smoothSolver:  Solving for Ux, Initial residual = 0.000427575, Final residual = 7.50331e-07, No Iterations 2
smoothSolver:  Solving for Uy, Initial residual = 0.0100133, Final residual = 9.70084e-07, No Iterations 3
smoothSolver:  Solving for Uz, Initial residual = 0.000217711, Final residual = 7.76253e-06, No Iterations 1
GAMG:  Solving for p, Initial residual = 0.0216429, Final residual = 0.00137319, No Iterations 1
time step continuity errors : sum local = 2.82916e-08, global = 4.65548e-12, cumulative = 8.83438e-07
GAMG:  Solving for p, Initial residual = 0.0016635, Final residual = 5.30034e-07, No Iterations 8
time step continuity errors : sum local = 1.07649e-11, global = -1.82878e-12, cumulative = 8.83436e-07
ExecutionTime = 123.88 s  ClockTime = 131 s

Time = 0.125

Courant Number mean: 0.00417585 max: 0.203176
smoothSolver:  Solving for Ux, Initial residual = 0.000420129, Final residual = 7.30562e-07, No Iterations 2
smoothSolver:  Solving for Uy, Initial residual = 0.00959973, Final residual = 9.26971e-07, No Iterations 3
smoothSolver:  Solving for Uz, Initial residual = 0.000213533, Final residual = 7.53131e-06, No Iterations 1
GAMG:  Solving for p, Initial residual = 0.0214653, Final residual = 0.00149051, No Iterations 1
time step continuity errors : sum local = 2.97869e-08, global = -4.34039e-12, cumulative = 8.83432e-07
GAMG:  Solving for p, Initial residual = 0.0018449, Final residual = 6.47818e-07, No Iterations 8
time step continuity errors : sum local = 1.27645e-11, global = -2.21968e-12, cumulative = 8.83429e-07
ExecutionTime = 128.5 s  ClockTime = 135 s

Time = 0.13

Courant Number mean: 0.00417691 max: 0.201918
smoothSolver:  Solving for Ux, Initial residual = 0.000417047, Final residual = 7.13083e-07, No Iterations 2
smoothSolver:  Solving for Uy, Initial residual = 0.00921896, Final residual = 8.86082e-07, No Iterations 3
smoothSolver:  Solving for Uz, Initial residual = 0.000212099, Final residual = 7.33802e-06, No Iterations 1
GAMG:  Solving for p, Initial residual = 0.0212574, Final residual = 0.00152331, No Iterations 1
time step continuity errors : sum local = 2.94922e-08, global = -1.98488e-12, cumulative = 8.83427e-07
GAMG:  Solving for p, Initial residual = 0.00187261, Final residual = 6.75593e-07, No Iterations 8
time step continuity errors : sum local = 1.2903e-11, global = -2.22749e-12, cumulative = 8.83425e-07
ExecutionTime = 133.14 s  ClockTime = 140 s

Time = 0.135

Courant Number mean: 0.00417797 max: 0.20065
smoothSolver:  Solving for Ux, Initial residual = 0.000413932, Final residual = 6.98161e-07, No Iterations 2
smoothSolver:  Solving for Uy, Initial residual = 0.00886726, Final residual = 8.49154e-07, No Iterations 3
smoothSolver:  Solving for Uz, Initial residual = 0.000210444, Final residual = 7.14944e-06, No Iterations 1
GAMG:  Solving for p, Initial residual = 0.0201231, Final residual = 0.00131128, No Iterations 1
time step continuity errors : sum local = 2.46324e-08, global = -2.0324e-12, cumulative = 8.83423e-07
GAMG:  Solving for p, Initial residual = 0.00163946, Final residual = 9.77303e-07, No Iterations 7
time step continuity errors : sum local = 1.8126e-11, global = -2.42155e-12, cumulative = 8.83421e-07
ExecutionTime = 137.65 s  ClockTime = 145 s

Time = 0.14

Courant Number mean: 0.00417902 max: 0.199452
smoothSolver:  Solving for Ux, Initial residual = 0.000406078, Final residual = 6.76076e-07, No Iterations 2
smoothSolver:  Solving for Uy, Initial residual = 0.00854143, Final residual = 8.14288e-07, No Iterations 3
smoothSolver:  Solving for Uz, Initial residual = 0.000205049, Final residual = 6.86762e-06, No Iterations 1
GAMG:  Solving for p, Initial residual = 0.0203704, Final residual = 0.00137714, No Iterations 1
time step continuity errors : sum local = 2.51852e-08, global = -2.3198e-12, cumulative = 8.83418e-07
GAMG:  Solving for p, Initial residual = 0.00179391, Final residual = 6.1628e-07, No Iterations 8
time step continuity errors : sum local = 1.11218e-11, global = -1.97601e-12, cumulative = 8.83416e-07
ExecutionTime = 142.23 s  ClockTime = 150 s

Time = 0.145

Courant Number mean: 0.00418007 max: 0.198235
smoothSolver:  Solving for Ux, Initial residual = 0.000400016, Final residual = 6.58135e-07, No Iterations 2
smoothSolver:  Solving for Uy, Initial residual = 0.00823873, Final residual = 7.81528e-07, No Iterations 3
smoothSolver:  Solving for Uz, Initial residual = 0.000200827, Final residual = 6.62493e-06, No Iterations 1
GAMG:  Solving for p, Initial residual = 0.0193494, Final residual = 0.00126713, No Iterations 1
time step continuity errors : sum local = 2.25284e-08, global = -1.20442e-12, cumulative = 8.83415e-07
GAMG:  Solving for p, Initial residual = 0.00163752, Final residual = 5.35061e-07, No Iterations 8
time step continuity errors : sum local = 9.39701e-12, global = -1.73161e-12, cumulative = 8.83413e-07
ExecutionTime = 146.86 s  ClockTime = 155 s

Time = 0.15

Courant Number mean: 0.00418112 max: 0.197046
smoothSolver:  Solving for Ux, Initial residual = 0.00039453, Final residual = 6.38622e-07, No Iterations 2
smoothSolver:  Solving for Uy, Initial residual = 0.00795678, Final residual = 7.60815e-07, No Iterations 3
smoothSolver:  Solving for Uz, Initial residual = 0.000197209, Final residual = 6.39314e-06, No Iterations 1
GAMG:  Solving for p, Initial residual = 0.0189596, Final residual = 0.00124882, No Iterations 1
time step continuity errors : sum local = 2.16134e-08, global = -1.32918e-12, cumulative = 8.83412e-07
GAMG:  Solving for p, Initial residual = 0.00162448, Final residual = 6.03356e-07, No Iterations 8
time step continuity errors : sum local = 1.03195e-11, global = -1.88651e-12, cumulative = 8.8341e-07
ExecutionTime = 151.58 s  ClockTime = 160 s

Time = 0.155

Courant Number mean: 0.00418217 max: 0.19588
smoothSolver:  Solving for Ux, Initial residual = 0.000389182, Final residual = 6.20621e-07, No Iterations 2
smoothSolver:  Solving for Uy, Initial residual = 0.00769354, Final residual = 7.37313e-07, No Iterations 3
smoothSolver:  Solving for Uz, Initial residual = 0.000192979, Final residual = 6.14623e-06, No Iterations 1
GAMG:  Solving for p, Initial residual = 0.0185512, Final residual = 0.00118226, No Iterations 1
time step continuity errors : sum local = 1.99307e-08, global = -1.7956e-12, cumulative = 8.83408e-07
GAMG:  Solving for p, Initial residual = 0.00155071, Final residual = 5.70121e-07, No Iterations 8
time step continuity errors : sum local = 9.50181e-12, global = -1.73932e-12, cumulative = 8.83407e-07
ExecutionTime = 156.23 s  ClockTime = 165 s

Time = 0.16

Courant Number mean: 0.00418322 max: 0.194736
smoothSolver:  Solving for Ux, Initial residual = 0.000384359, Final residual = 6.00918e-07, No Iterations 2
smoothSolver:  Solving for Uy, Initial residual = 0.00744718, Final residual = 7.11946e-07, No Iterations 3
smoothSolver:  Solving for Uz, Initial residual = 0.000189766, Final residual = 5.93e-06, No Iterations 1
GAMG:  Solving for p, Initial residual = 0.0186058, Final residual = 0.0012486, No Iterations 1
time step continuity errors : sum local = 2.05179e-08, global = -1.50534e-12, cumulative = 8.83405e-07
GAMG:  Solving for p, Initial residual = 0.00158026, Final residual = 5.57738e-07, No Iterations 8
time step continuity errors : sum local = 9.06023e-12, global = -1.70758e-12, cumulative = 8.83403e-07
ExecutionTime = 160.86 s  ClockTime = 169 s

Time = 0.165

Courant Number mean: 0.00418431 max: 0.193599
smoothSolver:  Solving for Ux, Initial residual = 0.000380868, Final residual = 5.8336e-07, No Iterations 2
smoothSolver:  Solving for Uy, Initial residual = 0.00721629, Final residual = 6.83922e-07, No Iterations 3
smoothSolver:  Solving for Uz, Initial residual = 0.000187741, Final residual = 5.74865e-06, No Iterations 1
GAMG:  Solving for p, Initial residual = 0.0188068, Final residual = 0.00129579, No Iterations 1
time step continuity errors : sum local = 2.07483e-08, global = -1.37511e-12, cumulative = 8.83402e-07
GAMG:  Solving for p, Initial residual = 0.00164559, Final residual = 5.86136e-07, No Iterations 8
time step continuity errors : sum local = 9.28184e-12, global = -1.71781e-12, cumulative = 8.834e-07
ExecutionTime = 165.48 s  ClockTime = 174 s

Time = 0.17

Courant Number mean: 0.0041854 max: 0.192459
smoothSolver:  Solving for Ux, Initial residual = 0.000378627, Final residual = 5.65279e-07, No Iterations 2
smoothSolver:  Solving for Uy, Initial residual = 0.00701087, Final residual = 6.59165e-07, No Iterations 3
smoothSolver:  Solving for Uz, Initial residual = 0.000187017, Final residual = 5.60274e-06, No Iterations 1
GAMG:  Solving for p, Initial residual = 0.0183409, Final residual = 0.00122556, No Iterations 1
time step continuity errors : sum local = 1.91459e-08, global = -1.67872e-12, cumulative = 8.83399e-07
GAMG:  Solving for p, Initial residual = 0.00155248, Final residual = 9.19062e-07, No Iterations 7
time step continuity errors : sum local = 1.42098e-11, global = -2.47518e-12, cumulative = 8.83396e-07
ExecutionTime = 170.01 s  ClockTime = 179 s

Time = 0.175

Courant Number mean: 0.00418649 max: 0.191317
smoothSolver:  Solving for Ux, Initial residual = 0.00037439, Final residual = 5.49546e-07, No Iterations 2
smoothSolver:  Solving for Uy, Initial residual = 0.0068192, Final residual = 6.35871e-07, No Iterations 3
smoothSolver:  Solving for Uz, Initial residual = 0.000184742, Final residual = 5.45346e-06, No Iterations 1
GAMG:  Solving for p, Initial residual = 0.01744, Final residual = 0.00117404, No Iterations 1
time step continuity errors : sum local = 1.79371e-08, global = -2.98582e-12, cumulative = 8.83393e-07
GAMG:  Solving for p, Initial residual = 0.00146958, Final residual = 8.89569e-07, No Iterations 7
time step continuity errors : sum local = 1.34613e-11, global = -2.31888e-12, cumulative = 8.83391e-07
ExecutionTime = 174.49 s  ClockTime = 184 s

Time = 0.18

Courant Number mean: 0.00418758 max: 0.190173
smoothSolver:  Solving for Ux, Initial residual = 0.000370151, Final residual = 5.34471e-07, No Iterations 2
smoothSolver:  Solving for Uy, Initial residual = 0.0066456, Final residual = 6.13737e-07, No Iterations 3
smoothSolver:  Solving for Uz, Initial residual = 0.000183053, Final residual = 5.33656e-06, No Iterations 1
GAMG:  Solving for p, Initial residual = 0.0171921, Final residual = 0.00117351, No Iterations 1
time step continuity errors : sum local = 1.75631e-08, global = -1.96447e-12, cumulative = 8.83389e-07
GAMG:  Solving for p, Initial residual = 0.00144735, Final residual = 7.99349e-07, No Iterations 7
time step continuity errors : sum local = 1.18545e-11, global = -2.01919e-12, cumulative = 8.83387e-07
ExecutionTime = 178.98 s  ClockTime = 188 s

Time = 0.185

Courant Number mean: 0.00418866 max: 0.189882
smoothSolver:  Solving for Ux, Initial residual = 0.000366507, Final residual = 5.19718e-07, No Iterations 2
smoothSolver:  Solving for Uy, Initial residual = 0.00648511, Final residual = 5.92409e-07, No Iterations 3
smoothSolver:  Solving for Uz, Initial residual = 0.000181543, Final residual = 5.23629e-06, No Iterations 1
GAMG:  Solving for p, Initial residual = 0.0168651, Final residual = 0.00114243, No Iterations 1
time step continuity errors : sum local = 1.67678e-08, global = -1.55344e-12, cumulative = 8.83385e-07
GAMG:  Solving for p, Initial residual = 0.00146315, Final residual = 8.24814e-07, No Iterations 7
time step continuity errors : sum local = 1.20032e-11, global = -2.08194e-12, cumulative = 8.83383e-07
ExecutionTime = 183.46 s  ClockTime = 193 s

Time = 0.19

Courant Number mean: 0.00418974 max: 0.18976
smoothSolver:  Solving for Ux, Initial residual = 0.000363333, Final residual = 5.07737e-07, No Iterations 2
smoothSolver:  Solving for Uy, Initial residual = 0.00633838, Final residual = 5.74167e-07, No Iterations 3
smoothSolver:  Solving for Uz, Initial residual = 0.00018053, Final residual = 5.1649e-06, No Iterations 1
GAMG:  Solving for p, Initial residual = 0.0163557, Final residual = 0.00116123, No Iterations 1
time step continuity errors : sum local = 1.6733e-08, global = -2.03831e-12, cumulative = 8.83381e-07
GAMG:  Solving for p, Initial residual = 0.0014758, Final residual = 8.44649e-07, No Iterations 7
time step continuity errors : sum local = 1.20762e-11, global = -2.16301e-12, cumulative = 8.83379e-07
ExecutionTime = 187.97 s  ClockTime = 198 s

Time = 0.195

Courant Number mean: 0.00419083 max: 0.189782
smoothSolver:  Solving for Ux, Initial residual = 0.000361706, Final residual = 4.96961e-07, No Iterations 2
smoothSolver:  Solving for Uy, Initial residual = 0.0062064, Final residual = 5.58289e-07, No Iterations 3
smoothSolver:  Solving for Uz, Initial residual = 0.000180386, Final residual = 5.10718e-06, No Iterations 1
GAMG:  Solving for p, Initial residual = 0.0165218, Final residual = 0.00129244, No Iterations 1
time step continuity errors : sum local = 1.82749e-08, global = -2.10303e-12, cumulative = 8.83377e-07
GAMG:  Solving for p, Initial residual = 0.00161745, Final residual = 8.80651e-07, No Iterations 7
time step continuity errors : sum local = 1.23461e-11, global = 2.87746e-12, cumulative = 8.8338e-07
ExecutionTime = 192.51 s  ClockTime = 203 s

Time = 0.2

Courant Number mean: 0.00419189 max: 0.189513
smoothSolver:  Solving for Ux, Initial residual = 0.000352997, Final residual = 4.84364e-07, No Iterations 2
smoothSolver:  Solving for Uy, Initial residual = 0.0060872, Final residual = 5.43659e-07, No Iterations 3
smoothSolver:  Solving for Uz, Initial residual = 0.000174274, Final residual = 4.93352e-06, No Iterations 1
GAMG:  Solving for p, Initial residual = 0.0156281, Final residual = 0.00111946, No Iterations 1
time step continuity errors : sum local = 1.56214e-08, global = 7.9711e-12, cumulative = 8.83388e-07
GAMG:  Solving for p, Initial residual = 0.00139412, Final residual = 6.88956e-07, No Iterations 7
time step continuity errors : sum local = 9.53975e-12, global = 1.92402e-12, cumulative = 8.8339e-07
ExecutionTime = 197.04 s  ClockTime = 208 s

Time = 0.205

Courant Number mean: 0.00419296 max: 0.189135
smoothSolver:  Solving for Ux, Initial residual = 0.000348322, Final residual = 4.72313e-07, No Iterations 2
smoothSolver:  Solving for Uy, Initial residual = 0.00597367, Final residual = 5.3056e-07, No Iterations 3
smoothSolver:  Solving for Uz, Initial residual = 0.00017185, Final residual = 4.84549e-06, No Iterations 1
GAMG:  Solving for p, Initial residual = 0.0148968, Final residual = 0.00105296, No Iterations 1
time step continuity errors : sum local = 1.44827e-08, global = 9.3144e-13, cumulative = 8.83391e-07
GAMG:  Solving for p, Initial residual = 0.00135026, Final residual = 9.14062e-07, No Iterations 7
time step continuity errors : sum local = 1.2482e-11, global = -2.01107e-12, cumulative = 8.83389e-07
ExecutionTime = 201.56 s  ClockTime = 212 s

Time = 0.21

Courant Number mean: 0.00419402 max: 0.188609
smoothSolver:  Solving for Ux, Initial residual = 0.000345713, Final residual = 4.61188e-07, No Iterations 2
smoothSolver:  Solving for Uy, Initial residual = 0.00585925, Final residual = 5.18066e-07, No Iterations 3
smoothSolver:  Solving for Uz, Initial residual = 0.000169682, Final residual = 4.75151e-06, No Iterations 1
GAMG:  Solving for p, Initial residual = 0.0153241, Final residual = 0.00118369, No Iterations 1
time step continuity errors : sum local = 1.60133e-08, global = -5.88454e-12, cumulative = 8.83383e-07
GAMG:  Solving for p, Initial residual = 0.00149733, Final residual = 7.69435e-07, No Iterations 7
time step continuity errors : sum local = 1.0326e-11, global = 2.95685e-12, cumulative = 8.83386e-07
ExecutionTime = 206.07 s  ClockTime = 217 s

Time = 0.215

Courant Number mean: 0.00419506 max: 0.187522
smoothSolver:  Solving for Ux, Initial residual = 0.000338849, Final residual = 4.49411e-07, No Iterations 2
smoothSolver:  Solving for Uy, Initial residual = 0.00574478, Final residual = 5.05833e-07, No Iterations 3
smoothSolver:  Solving for Uz, Initial residual = 0.000164129, Final residual = 4.59049e-06, No Iterations 1
GAMG:  Solving for p, Initial residual = 0.014676, Final residual = 0.00106977, No Iterations 1
time step continuity errors : sum local = 1.42799e-08, global = 8.10861e-12, cumulative = 8.83394e-07
GAMG:  Solving for p, Initial residual = 0.00135542, Final residual = 9.26912e-07, No Iterations 7
time step continuity errors : sum local = 1.22813e-11, global = -1.70295e-12, cumulative = 8.83392e-07
ExecutionTime = 210.64 s  ClockTime = 222 s

Time = 0.22

Courant Number mean: 0.00419609 max: 0.186659
smoothSolver:  Solving for Ux, Initial residual = 0.000335539, Final residual = 4.40429e-07, No Iterations 2
smoothSolver:  Solving for Uy, Initial residual = 0.00563002, Final residual = 4.98228e-07, No Iterations 3
smoothSolver:  Solving for Uz, Initial residual = 0.000162022, Final residual = 4.51441e-06, No Iterations 1
GAMG:  Solving for p, Initial residual = 0.0138101, Final residual = 0.000955862, No Iterations 1
time step continuity errors : sum local = 1.25701e-08, global = -6.22165e-12, cumulative = 8.83386e-07
GAMG:  Solving for p, Initial residual = 0.00126503, Final residual = 8.56935e-07, No Iterations 7
time step continuity errors : sum local = 1.1189e-11, global = -1.98649e-12, cumulative = 8.83384e-07
ExecutionTime = 215.18 s  ClockTime = 227 s

Time = 0.225

Courant Number mean: 0.0041971 max: 0.187017
smoothSolver:  Solving for Ux, Initial residual = 0.000333814, Final residual = 9.98389e-06, No Iterations 1
smoothSolver:  Solving for Uy, Initial residual = 0.00551944, Final residual = 4.91184e-07, No Iterations 3
smoothSolver:  Solving for Uz, Initial residual = 0.000160929, Final residual = 4.43887e-06, No Iterations 1
GAMG:  Solving for p, Initial residual = 0.0131515, Final residual = 0.000930953, No Iterations 1
time step continuity errors : sum local = 1.20538e-08, global = -2.22941e-12, cumulative = 8.83382e-07
GAMG:  Solving for p, Initial residual = 0.00119715, Final residual = 7.98386e-07, No Iterations 7
time step continuity errors : sum local = 1.02696e-11, global = -1.82909e-12, cumulative = 8.8338e-07
ExecutionTime = 219.73 s  ClockTime = 231 s

Time = 0.23

Courant Number mean: 0.0041981 max: 0.187358
smoothSolver:  Solving for Ux, Initial residual = 0.000332264, Final residual = 9.85161e-06, No Iterations 1
smoothSolver:  Solving for Uy, Initial residual = 0.00541183, Final residual = 4.8365e-07, No Iterations 3
smoothSolver:  Solving for Uz, Initial residual = 0.000159949, Final residual = 4.36972e-06, No Iterations 1
GAMG:  Solving for p, Initial residual = 0.0126879, Final residual = 0.000901676, No Iterations 1
time step continuity errors : sum local = 1.15007e-08, global = -1.63221e-12, cumulative = 8.83378e-07
GAMG:  Solving for p, Initial residual = 0.0011729, Final residual = 8.07462e-07, No Iterations 7
time step continuity errors : sum local = 1.02337e-11, global = -1.82419e-12, cumulative = 8.83376e-07
ExecutionTime = 224.2 s  ClockTime = 236 s

Time = 0.235

Courant Number mean: 0.00419909 max: 0.187662
smoothSolver:  Solving for Ux, Initial residual = 0.000330704, Final residual = 9.72297e-06, No Iterations 1
smoothSolver:  Solving for Uy, Initial residual = 0.00530442, Final residual = 4.75476e-07, No Iterations 3
smoothSolver:  Solving for Uz, Initial residual = 0.000159096, Final residual = 4.3112e-06, No Iterations 1
GAMG:  Solving for p, Initial residual = 0.0121688, Final residual = 0.000881085, No Iterations 1
time step continuity errors : sum local = 1.10764e-08, global = -1.81437e-12, cumulative = 8.83375e-07
GAMG:  Solving for p, Initial residual = 0.00110868, Final residual = 7.74706e-07, No Iterations 7
time step continuity errors : sum local = 9.68029e-12, global = -1.74557e-12, cumulative = 8.83373e-07
ExecutionTime = 228.65 s  ClockTime = 241 s

Time = 0.24

Courant Number mean: 0.00420007 max: 0.187915
smoothSolver:  Solving for Ux, Initial residual = 0.00032945, Final residual = 9.59901e-06, No Iterations 1
smoothSolver:  Solving for Uy, Initial residual = 0.00519781, Final residual = 4.67634e-07, No Iterations 3
smoothSolver:  Solving for Uz, Initial residual = 0.0001583, Final residual = 4.25326e-06, No Iterations 1
GAMG:  Solving for p, Initial residual = 0.0121608, Final residual = 0.000882192, No Iterations 1
time step continuity errors : sum local = 1.09373e-08, global = -1.60809e-12, cumulative = 8.83371e-07
GAMG:  Solving for p, Initial residual = 0.00113192, Final residual = 7.46451e-07, No Iterations 7
time step continuity errors : sum local = 9.19891e-12, global = -1.6449e-12, cumulative = 8.8337e-07
ExecutionTime = 233.15 s  ClockTime = 245 s

Time = 0.245

Courant Number mean: 0.00420105 max: 0.18812
smoothSolver:  Solving for Ux, Initial residual = 0.000328019, Final residual = 9.45472e-06, No Iterations 1
smoothSolver:  Solving for Uy, Initial residual = 0.00509775, Final residual = 4.58978e-07, No Iterations 3
smoothSolver:  Solving for Uz, Initial residual = 0.000157605, Final residual = 4.19666e-06, No Iterations 1
GAMG:  Solving for p, Initial residual = 0.0120681, Final residual = 0.000894293, No Iterations 1
time step continuity errors : sum local = 1.09386e-08, global = -1.48239e-12, cumulative = 8.83368e-07
GAMG:  Solving for p, Initial residual = 0.00113233, Final residual = 7.15991e-07, No Iterations 7
time step continuity errors : sum local = 8.70438e-12, global = -1.31757e-12, cumulative = 8.83367e-07
ExecutionTime = 237.65 s  ClockTime = 250 s

Time = 0.25

Courant Number mean: 0.00420204 max: 0.188272
smoothSolver:  Solving for Ux, Initial residual = 0.000326336, Final residual = 9.35406e-06, No Iterations 1
smoothSolver:  Solving for Uy, Initial residual = 0.00500557, Final residual = 4.50119e-07, No Iterations 3
smoothSolver:  Solving for Uz, Initial residual = 0.000156405, Final residual = 4.13821e-06, No Iterations 1
GAMG:  Solving for p, Initial residual = 0.0116794, Final residual = 0.000853929, No Iterations 1
time step continuity errors : sum local = 1.03129e-08, global = -9.57486e-13, cumulative = 8.83366e-07
GAMG:  Solving for p, Initial residual = 0.00109684, Final residual = 6.33749e-07, No Iterations 7
time step continuity errors : sum local = 7.60991e-12, global = -1.07425e-12, cumulative = 8.83365e-07
ExecutionTime = 242.17 s  ClockTime = 255 s

Time = 0.255

Courant Number mean: 0.00420302 max: 0.188371
smoothSolver:  Solving for Ux, Initial residual = 0.00032477, Final residual = 9.25586e-06, No Iterations 1
smoothSolver:  Solving for Uy, Initial residual = 0.00491602, Final residual = 4.40933e-07, No Iterations 3
smoothSolver:  Solving for Uz, Initial residual = 0.000155491, Final residual = 4.11112e-06, No Iterations 1
GAMG:  Solving for p, Initial residual = 0.0111519, Final residual = 0.000828072, No Iterations 1
time step continuity errors : sum local = 9.88077e-09, global = -8.3623e-13, cumulative = 8.83364e-07
GAMG:  Solving for p, Initial residual = 0.00107434, Final residual = 5.6325e-07, No Iterations 7
time step continuity errors : sum local = 6.68331e-12, global = -7.18048e-13, cumulative = 8.83363e-07
ExecutionTime = 246.69 s  ClockTime = 260 s

Time = 0.26

Courant Number mean: 0.00420402 max: 0.188416
smoothSolver:  Solving for Ux, Initial residual = 0.000323114, Final residual = 9.16587e-06, No Iterations 1
smoothSolver:  Solving for Uy, Initial residual = 0.00482766, Final residual = 9.87493e-06, No Iterations 2
smoothSolver:  Solving for Uz, Initial residual = 0.000154466, Final residual = 4.0821e-06, No Iterations 1
GAMG:  Solving for p, Initial residual = 0.0109419, Final residual = 0.000868472, No Iterations 1
time step continuity errors : sum local = 1.02431e-08, global = -3.74691e-13, cumulative = 8.83363e-07
GAMG:  Solving for p, Initial residual = 0.00114405, Final residual = 6.00107e-07, No Iterations 7
time step continuity errors : sum local = 7.03642e-12, global = -7.1844e-13, cumulative = 8.83362e-07
ExecutionTime = 251.17 s  ClockTime = 265 s

Time = 0.265

Courant Number mean: 0.00420501 max: 0.188407
smoothSolver:  Solving for Ux, Initial residual = 0.000321506, Final residual = 9.08032e-06, No Iterations 1
smoothSolver:  Solving for Uy, Initial residual = 0.00474178, Final residual = 9.6666e-06, No Iterations 2
smoothSolver:  Solving for Uz, Initial residual = 0.000153155, Final residual = 4.0495e-06, No Iterations 1
GAMG:  Solving for p, Initial residual = 0.0106151, Final residual = 0.000786372, No Iterations 1
time step continuity errors : sum local = 9.16157e-09, global = -7.54402e-13, cumulative = 8.83361e-07
GAMG:  Solving for p, Initial residual = 0.00105615, Final residual = 5.56583e-07, No Iterations 7
time step continuity errors : sum local = 6.44444e-12, global = -1.32859e-13, cumulative = 8.83361e-07
ExecutionTime = 255.64 s  ClockTime = 269 s

Time = 0.27

Courant Number mean: 0.004206 max: 0.188341
smoothSolver:  Solving for Ux, Initial residual = 0.000319703, Final residual = 9.00306e-06, No Iterations 1
smoothSolver:  Solving for Uy, Initial residual = 0.00465873, Final residual = 9.48374e-06, No Iterations 2
smoothSolver:  Solving for Uz, Initial residual = 0.000151861, Final residual = 4.01637e-06, No Iterations 1
GAMG:  Solving for p, Initial residual = 0.0101088, Final residual = 0.00074174, No Iterations 1
time step continuity errors : sum local = 8.53826e-09, global = 3.89933e-13, cumulative = 8.83362e-07
GAMG:  Solving for p, Initial residual = 0.00101221, Final residual = 5.72382e-07, No Iterations 7
time step continuity errors : sum local = 6.54984e-12, global = -5.50872e-13, cumulative = 8.83361e-07
ExecutionTime = 260.08 s  ClockTime = 274 s

Time = 0.275

Courant Number mean: 0.00420698 max: 0.188224
smoothSolver:  Solving for Ux, Initial residual = 0.000318197, Final residual = 8.95692e-06, No Iterations 1
smoothSolver:  Solving for Uy, Initial residual = 0.00458497, Final residual = 9.30232e-06, No Iterations 2
smoothSolver:  Solving for Uz, Initial residual = 0.000150534, Final residual = 3.96777e-06, No Iterations 1
GAMG:  Solving for p, Initial residual = 0.00958325, Final residual = 0.000697359, No Iterations 1
time step continuity errors : sum local = 7.93732e-09, global = -9.81115e-13, cumulative = 8.8336e-07
GAMG:  Solving for p, Initial residual = 0.000956561, Final residual = 8.09656e-07, No Iterations 7
time step continuity errors : sum local = 9.16565e-12, global = -1.55598e-12, cumulative = 8.83359e-07
ExecutionTime = 264.58 s  ClockTime = 279 s

Time = 0.28

Courant Number mean: 0.00420797 max: 0.188069
smoothSolver:  Solving for Ux, Initial residual = 0.000317549, Final residual = 8.89848e-06, No Iterations 1
smoothSolver:  Solving for Uy, Initial residual = 0.00452094, Final residual = 9.12487e-06, No Iterations 2
smoothSolver:  Solving for Uz, Initial residual = 0.000150129, Final residual = 3.93252e-06, No Iterations 1
GAMG:  Solving for p, Initial residual = 0.00987641, Final residual = 0.000760065, No Iterations 1
time step continuity errors : sum local = 8.54702e-09, global = -2.55399e-12, cumulative = 8.83356e-07
GAMG:  Solving for p, Initial residual = 0.00102482, Final residual = 9.89653e-07, No Iterations 7
time step continuity errors : sum local = 1.10728e-11, global = -1.9763e-12, cumulative = 8.83354e-07
ExecutionTime = 269.1 s  ClockTime = 283 s

Time = 0.285

Courant Number mean: 0.00420898 max: 0.187883
smoothSolver:  Solving for Ux, Initial residual = 0.000319016, Final residual = 8.88039e-06, No Iterations 1
smoothSolver:  Solving for Uy, Initial residual = 0.0044581, Final residual = 8.95428e-06, No Iterations 2
smoothSolver:  Solving for Uz, Initial residual = 0.000151616, Final residual = 3.93843e-06, No Iterations 1
GAMG:  Solving for p, Initial residual = 0.0101436, Final residual = 0.000793558, No Iterations 1
time step continuity errors : sum local = 8.81275e-09, global = -2.37669e-12, cumulative = 8.83352e-07
GAMG:  Solving for p, Initial residual = 0.00104691, Final residual = 8.46291e-07, No Iterations 7
time step continuity errors : sum local = 9.3517e-12, global = -1.62547e-12, cumulative = 8.8335e-07
ExecutionTime = 273.64 s  ClockTime = 288 s

Time = 0.29

Courant Number mean: 0.00420999 max: 0.187663
smoothSolver:  Solving for Ux, Initial residual = 0.000320119, Final residual = 8.87499e-06, No Iterations 1
smoothSolver:  Solving for Uy, Initial residual = 0.00439306, Final residual = 8.83602e-06, No Iterations 2
smoothSolver:  Solving for Uz, Initial residual = 0.00015265, Final residual = 3.93217e-06, No Iterations 1
GAMG:  Solving for p, Initial residual = 0.0106242, Final residual = 0.000876898, No Iterations 1
time step continuity errors : sum local = 9.62456e-09, global = -1.28904e-12, cumulative = 8.83349e-07
GAMG:  Solving for p, Initial residual = 0.00123224, Final residual = 4.766e-07, No Iterations 7
time step continuity errors : sum local = 5.20659e-12, global = 1.62214e-12, cumulative = 8.8335e-07
ExecutionTime = 278.06 s  ClockTime = 293 s

Time = 0.295

Courant Number mean: 0.00421099 max: 0.187393
smoothSolver:  Solving for Ux, Initial residual = 0.000316697, Final residual = 8.79743e-06, No Iterations 1
smoothSolver:  Solving for Uy, Initial residual = 0.004327, Final residual = 8.72221e-06, No Iterations 2
smoothSolver:  Solving for Uz, Initial residual = 0.000150168, Final residual = 3.87133e-06, No Iterations 1
GAMG:  Solving for p, Initial residual = 0.009149, Final residual = 0.000681951, No Iterations 1
time step continuity errors : sum local = 7.42156e-09, global = 4.79185e-12, cumulative = 8.83355e-07
GAMG:  Solving for p, Initial residual = 0.000983048, Final residual = 5.28412e-07, No Iterations 8
time step continuity errors : sum local = 5.72057e-12, global = -9.10067e-13, cumulative = 8.83354e-07
ExecutionTime = 282.68 s  ClockTime = 298 s

Time = 0.3

Courant Number mean: 0.004212 max: 0.187656
smoothSolver:  Solving for Ux, Initial residual = 0.000318145, Final residual = 8.76014e-06, No Iterations 1
smoothSolver:  Solving for Uy, Initial residual = 0.00425941, Final residual = 8.59583e-06, No Iterations 2
smoothSolver:  Solving for Uz, Initial residual = 0.00015175, Final residual = 3.8741e-06, No Iterations 1
GAMG:  Solving for p, Initial residual = 0.00926522, Final residual = 0.000687811, No Iterations 1
time step continuity errors : sum local = 7.39096e-09, global = -3.48544e-12, cumulative = 8.83351e-07
GAMG:  Solving for p, Initial residual = 0.000996114, Final residual = 6.0528e-07, No Iterations 8
time step continuity errors : sum local = 6.4709e-12, global = -1.11536e-12, cumulative = 8.8335e-07
ExecutionTime = 287.27 s  ClockTime = 302 s

Time = 0.305

Courant Number mean: 0.00421303 max: 0.187863
smoothSolver:  Solving for Ux, Initial residual = 0.000320864, Final residual = 8.73861e-06, No Iterations 1
smoothSolver:  Solving for Uy, Initial residual = 0.00419227, Final residual = 8.46939e-06, No Iterations 2
smoothSolver:  Solving for Uz, Initial residual = 0.000153853, Final residual = 3.88364e-06, No Iterations 1
GAMG:  Solving for p, Initial residual = 0.0092389, Final residual = 0.000711194, No Iterations 1
time step continuity errors : sum local = 7.54139e-09, global = -1.31684e-12, cumulative = 8.83348e-07
GAMG:  Solving for p, Initial residual = 0.000976463, Final residual = 6.24355e-07, No Iterations 8
time step continuity errors : sum local = 6.59075e-12, global = -1.06272e-12, cumulative = 8.83347e-07
ExecutionTime = 291.89 s  ClockTime = 307 s

Time = 0.31

Courant Number mean: 0.00421405 max: 0.187945
smoothSolver:  Solving for Ux, Initial residual = 0.000323273, Final residual = 8.74076e-06, No Iterations 1
smoothSolver:  Solving for Uy, Initial residual = 0.00413048, Final residual = 8.335e-06, No Iterations 2
smoothSolver:  Solving for Uz, Initial residual = 0.00015561, Final residual = 3.89619e-06, No Iterations 1
GAMG:  Solving for p, Initial residual = 0.00862322, Final residual = 0.000612793, No Iterations 1
time step continuity errors : sum local = 6.4198e-09, global = -1.06767e-12, cumulative = 8.83346e-07
GAMG:  Solving for p, Initial residual = 0.000920957, Final residual = 6.41365e-07, No Iterations 7
time step continuity errors : sum local = 6.68967e-12, global = -1.03634e-12, cumulative = 8.83345e-07
ExecutionTime = 296.38 s  ClockTime = 312 s

Time = 0.315

Courant Number mean: 0.00421509 max: 0.188882
smoothSolver:  Solving for Ux, Initial residual = 0.000322984, Final residual = 8.72306e-06, No Iterations 1
smoothSolver:  Solving for Uy, Initial residual = 0.00407175, Final residual = 8.20492e-06, No Iterations 2
smoothSolver:  Solving for Uz, Initial residual = 0.00015529, Final residual = 3.87666e-06, No Iterations 1
GAMG:  Solving for p, Initial residual = 0.00836819, Final residual = 0.000638578, No Iterations 1
time step continuity errors : sum local = 6.6297e-09, global = -1.06733e-12, cumulative = 8.83344e-07
GAMG:  Solving for p, Initial residual = 0.000888705, Final residual = 8.11386e-07, No Iterations 6
time step continuity errors : sum local = 8.391e-12, global = 5.30615e-13, cumulative = 8.83345e-07
ExecutionTime = 300.78 s  ClockTime = 317 s

Time = 0.32

Courant Number mean: 0.00421613 max: 0.18984
smoothSolver:  Solving for Ux, Initial residual = 0.000322054, Final residual = 8.69224e-06, No Iterations 1
smoothSolver:  Solving for Uy, Initial residual = 0.00401534, Final residual = 8.0714e-06, No Iterations 2
smoothSolver:  Solving for Uz, Initial residual = 0.00015455, Final residual = 3.85642e-06, No Iterations 1
GAMG:  Solving for p, Initial residual = 0.0082889, Final residual = 0.000615816, No Iterations 1
time step continuity errors : sum local = 6.34591e-09, global = 1.93501e-12, cumulative = 8.83347e-07
GAMG:  Solving for p, Initial residual = 0.000912957, Final residual = 6.43578e-07, No Iterations 7
time step continuity errors : sum local = 6.60805e-12, global = -1.04414e-12, cumulative = 8.83346e-07
ExecutionTime = 305.27 s  ClockTime = 321 s

Time = 0.325

Courant Number mean: 0.00421718 max: 0.190693
smoothSolver:  Solving for Ux, Initial residual = 0.000322242, Final residual = 8.67363e-06, No Iterations 1
smoothSolver:  Solving for Uy, Initial residual = 0.00395883, Final residual = 7.95391e-06, No Iterations 2
smoothSolver:  Solving for Uz, Initial residual = 0.000154639, Final residual = 3.84096e-06, No Iterations 1
GAMG:  Solving for p, Initial residual = 0.00825216, Final residual = 0.000642255, No Iterations 1
time step continuity errors : sum local = 6.55723e-09, global = -2.58562e-12, cumulative = 8.83343e-07
GAMG:  Solving for p, Initial residual = 0.000965868, Final residual = 8.09709e-07, No Iterations 6
time step continuity errors : sum local = 8.22609e-12, global = 1.71988e-12, cumulative = 8.83345e-07
ExecutionTime = 309.62 s  ClockTime = 326 s

Time = 0.33

Courant Number mean: 0.00421824 max: 0.191406
smoothSolver:  Solving for Ux, Initial residual = 0.000320937, Final residual = 8.63319e-06, No Iterations 1
smoothSolver:  Solving for Uy, Initial residual = 0.00390574, Final residual = 7.83301e-06, No Iterations 2
smoothSolver:  Solving for Uz, Initial residual = 0.000153581, Final residual = 3.80432e-06, No Iterations 1
GAMG:  Solving for p, Initial residual = 0.0082969, Final residual = 0.000620429, No Iterations 1
time step continuity errors : sum local = 6.27687e-09, global = 4.47507e-12, cumulative = 8.83349e-07
GAMG:  Solving for p, Initial residual = 0.000917139, Final residual = 9.53999e-07, No Iterations 6
time step continuity errors : sum local = 9.60549e-12, global = 3.05367e-12, cumulative = 8.83352e-07
ExecutionTime = 314.04 s  ClockTime = 331 s

Time = 0.335

Courant Number mean: 0.00421928 max: 0.191969
smoothSolver:  Solving for Ux, Initial residual = 0.000319272, Final residual = 8.60359e-06, No Iterations 1
smoothSolver:  Solving for Uy, Initial residual = 0.00385413, Final residual = 7.72189e-06, No Iterations 2
smoothSolver:  Solving for Uz, Initial residual = 0.000152268, Final residual = 3.77848e-06, No Iterations 1
GAMG:  Solving for p, Initial residual = 0.00768176, Final residual = 0.000573101, No Iterations 1
time step continuity errors : sum local = 5.75081e-09, global = 4.27151e-12, cumulative = 8.83356e-07
GAMG:  Solving for p, Initial residual = 0.000876108, Final residual = 7.88103e-07, No Iterations 7
time step continuity errors : sum local = 7.87427e-12, global = -9.85649e-13, cumulative = 8.83355e-07
ExecutionTime = 318.49 s  ClockTime = 335 s

Time = 0.34

Courant Number mean: 0.00422033 max: 0.192376
smoothSolver:  Solving for Ux, Initial residual = 0.000319133, Final residual = 8.56808e-06, No Iterations 1
smoothSolver:  Solving for Uy, Initial residual = 0.00380422, Final residual = 7.61537e-06, No Iterations 2
smoothSolver:  Solving for Uz, Initial residual = 0.000152335, Final residual = 3.77323e-06, No Iterations 1
GAMG:  Solving for p, Initial residual = 0.00729343, Final residual = 0.000540937, No Iterations 1
time step continuity errors : sum local = 5.38126e-09, global = -5.10957e-12, cumulative = 8.8335e-07
GAMG:  Solving for p, Initial residual = 0.000783981, Final residual = 6.90811e-07, No Iterations 7
time step continuity errors : sum local = 6.84476e-12, global = -1.16933e-12, cumulative = 8.83349e-07
ExecutionTime = 322.94 s  ClockTime = 340 s

Time = 0.345

Courant Number mean: 0.00422138 max: 0.193572
smoothSolver:  Solving for Ux, Initial residual = 0.000319449, Final residual = 8.53891e-06, No Iterations 1
smoothSolver:  Solving for Uy, Initial residual = 0.00376181, Final residual = 7.50544e-06, No Iterations 2
smoothSolver:  Solving for Uz, Initial residual = 0.000152422, Final residual = 3.76047e-06, No Iterations 1
GAMG:  Solving for p, Initial residual = 0.00748355, Final residual = 0.000570242, No Iterations 1
time step continuity errors : sum local = 5.62274e-09, global = -1.4129e-12, cumulative = 8.83348e-07
GAMG:  Solving for p, Initial residual = 0.000863818, Final residual = 7.18339e-07, No Iterations 7
time step continuity errors : sum local = 7.05621e-12, global = -1.31259e-12, cumulative = 8.83346e-07
ExecutionTime = 327.47 s  ClockTime = 345 s

Time = 0.35

Courant Number mean: 0.00422242 max: 0.194867
smoothSolver:  Solving for Ux, Initial residual = 0.000319984, Final residual = 8.49751e-06, No Iterations 1
smoothSolver:  Solving for Uy, Initial residual = 0.00372154, Final residual = 7.39394e-06, No Iterations 2
smoothSolver:  Solving for Uz, Initial residual = 0.000153002, Final residual = 3.76784e-06, No Iterations 1
GAMG:  Solving for p, Initial residual = 0.00751807, Final residual = 0.000591745, No Iterations 1
time step continuity errors : sum local = 5.78341e-09, global = -1.56093e-12, cumulative = 8.83345e-07
GAMG:  Solving for p, Initial residual = 0.000847444, Final residual = 4.53442e-07, No Iterations 7
time step continuity errors : sum local = 4.4157e-12, global = 1.10032e-12, cumulative = 8.83346e-07
ExecutionTime = 331.98 s  ClockTime = 349 s

Time = 0.355

Courant Number mean: 0.00422347 max: 0.195988
smoothSolver:  Solving for Ux, Initial residual = 0.000318038, Final residual = 8.48664e-06, No Iterations 1
smoothSolver:  Solving for Uy, Initial residual = 0.00367932, Final residual = 7.30902e-06, No Iterations 2
smoothSolver:  Solving for Uz, Initial residual = 0.000151165, Final residual = 3.71695e-06, No Iterations 1
GAMG:  Solving for p, Initial residual = 0.00697533, Final residual = 0.000505469, No Iterations 1
time step continuity errors : sum local = 4.91472e-09, global = 3.36949e-12, cumulative = 8.83349e-07
GAMG:  Solving for p, Initial residual = 0.000748427, Final residual = 7.62247e-07, No Iterations 6
time step continuity errors : sum local = 7.3856e-12, global = 2.01018e-12, cumulative = 8.83351e-07
ExecutionTime = 336.32 s  ClockTime = 354 s

Time = 0.36

Courant Number mean: 0.00422451 max: 0.196935
smoothSolver:  Solving for Ux, Initial residual = 0.000316536, Final residual = 8.47626e-06, No Iterations 1
smoothSolver:  Solving for Uy, Initial residual = 0.00363623, Final residual = 7.2474e-06, No Iterations 2
smoothSolver:  Solving for Uz, Initial residual = 0.000150048, Final residual = 3.68758e-06, No Iterations 1
GAMG:  Solving for p, Initial residual = 0.00727796, Final residual = 0.000565377, No Iterations 1
time step continuity errors : sum local = 5.46611e-09, global = 2.79941e-12, cumulative = 8.83354e-07
GAMG:  Solving for p, Initial residual = 0.000842502, Final residual = 9.22415e-07, No Iterations 6
time step continuity errors : sum local = 8.88735e-12, global = 2.22627e-12, cumulative = 8.83356e-07
ExecutionTime = 340.72 s  ClockTime = 359 s

Time = 0.365

Courant Number mean: 0.00422553 max: 0.1977
smoothSolver:  Solving for Ux, Initial residual = 0.0003145, Final residual = 8.47195e-06, No Iterations 1
smoothSolver:  Solving for Uy, Initial residual = 0.00359535, Final residual = 7.17325e-06, No Iterations 2
smoothSolver:  Solving for Uz, Initial residual = 0.000148422, Final residual = 3.64447e-06, No Iterations 1
GAMG:  Solving for p, Initial residual = 0.00668457, Final residual = 0.000475562, No Iterations 1
time step continuity errors : sum local = 4.5762e-09, global = 2.29713e-12, cumulative = 8.83359e-07
GAMG:  Solving for p, Initial residual = 0.00072045, Final residual = 8.07053e-07, No Iterations 6
time step continuity errors : sum local = 7.7409e-12, global = 1.23142e-12, cumulative = 8.8336e-07
ExecutionTime = 345.07 s  ClockTime = 363 s

Time = 0.37

Courant Number mean: 0.00422654 max: 0.198323
smoothSolver:  Solving for Ux, Initial residual = 0.000313922, Final residual = 8.44615e-06, No Iterations 1
smoothSolver:  Solving for Uy, Initial residual = 0.0035561, Final residual = 7.083e-06, No Iterations 2
smoothSolver:  Solving for Uz, Initial residual = 0.000148121, Final residual = 3.63084e-06, No Iterations 1
GAMG:  Solving for p, Initial residual = 0.00691842, Final residual = 0.000502357, No Iterations 1
time step continuity errors : sum local = 4.80396e-09, global = 1.27797e-13, cumulative = 8.8336e-07
GAMG:  Solving for p, Initial residual = 0.000774577, Final residual = 5.83273e-07, No Iterations 7
time step continuity errors : sum local = 5.56036e-12, global = -1.05205e-12, cumulative = 8.83359e-07
ExecutionTime = 349.59 s  ClockTime = 368 s

Time = 0.375

Courant Number mean: 0.00422755 max: 0.198849
smoothSolver:  Solving for Ux, Initial residual = 0.000314447, Final residual = 8.4196e-06, No Iterations 1
smoothSolver:  Solving for Uy, Initial residual = 0.00351711, Final residual = 7.00982e-06, No Iterations 2
smoothSolver:  Solving for Uz, Initial residual = 0.000148477, Final residual = 3.6227e-06, No Iterations 1
GAMG:  Solving for p, Initial residual = 0.00662765, Final residual = 0.00048582, No Iterations 1
time step continuity errors : sum local = 4.61211e-09, global = -3.4121e-12, cumulative = 8.83356e-07
GAMG:  Solving for p, Initial residual = 0.000758259, Final residual = 6.65262e-07, No Iterations 7
time step continuity errors : sum local = 6.29666e-12, global = -1.051e-12, cumulative = 8.83355e-07
ExecutionTime = 354.03 s  ClockTime = 373 s

Time = 0.38

Courant Number mean: 0.00422857 max: 0.19924
smoothSolver:  Solving for Ux, Initial residual = 0.000314815, Final residual = 8.40255e-06, No Iterations 1
smoothSolver:  Solving for Uy, Initial residual = 0.00347974, Final residual = 6.93736e-06, No Iterations 2
smoothSolver:  Solving for Uz, Initial residual = 0.000148681, Final residual = 3.62208e-06, No Iterations 1
GAMG:  Solving for p, Initial residual = 0.00727749, Final residual = 0.000584706, No Iterations 1
time step continuity errors : sum local = 5.51125e-09, global = -1.18917e-12, cumulative = 8.83353e-07
GAMG:  Solving for p, Initial residual = 0.000904302, Final residual = 7.62211e-07, No Iterations 6
time step continuity errors : sum local = 7.16081e-12, global = 1.44414e-12, cumulative = 8.83355e-07
ExecutionTime = 358.44 s  ClockTime = 377 s

Time = 0.385

Courant Number mean: 0.00422957 max: 0.199574
smoothSolver:  Solving for Ux, Initial residual = 0.000314165, Final residual = 8.37707e-06, No Iterations 1
smoothSolver:  Solving for Uy, Initial residual = 0.00343982, Final residual = 6.86033e-06, No Iterations 2
smoothSolver:  Solving for Uz, Initial residual = 0.000148057, Final residual = 3.61205e-06, No Iterations 1
GAMG:  Solving for p, Initial residual = 0.00673575, Final residual = 0.000504146, No Iterations 1
time step continuity errors : sum local = 4.72255e-09, global = 3.75754e-12, cumulative = 8.83359e-07
GAMG:  Solving for p, Initial residual = 0.000890896, Final residual = 9.24013e-07, No Iterations 6
time step continuity errors : sum local = 8.62918e-12, global = 7.79309e-13, cumulative = 8.83359e-07
ExecutionTime = 362.8 s  ClockTime = 382 s

Time = 0.39

Courant Number mean: 0.00423058 max: 0.199764
smoothSolver:  Solving for Ux, Initial residual = 0.000313828, Final residual = 8.34606e-06, No Iterations 1
smoothSolver:  Solving for Uy, Initial residual = 0.00339748, Final residual = 6.77445e-06, No Iterations 2
smoothSolver:  Solving for Uz, Initial residual = 0.000147923, Final residual = 3.61049e-06, No Iterations 1
GAMG:  Solving for p, Initial residual = 0.00701199, Final residual = 0.000569722, No Iterations 1
time step continuity errors : sum local = 5.29955e-09, global = -5.09725e-14, cumulative = 8.83359e-07
GAMG:  Solving for p, Initial residual = 0.000923028, Final residual = 6.35791e-07, No Iterations 7
time step continuity errors : sum local = 5.89158e-12, global = -8.01692e-13, cumulative = 8.83358e-07
ExecutionTime = 367.32 s  ClockTime = 387 s

Time = 0.395

Courant Number mean: 0.0042316 max: 0.199831
smoothSolver:  Solving for Ux, Initial residual = 0.000313547, Final residual = 8.31165e-06, No Iterations 1
smoothSolver:  Solving for Uy, Initial residual = 0.00335337, Final residual = 6.68429e-06, No Iterations 2
smoothSolver:  Solving for Uz, Initial residual = 0.000147899, Final residual = 3.59954e-06, No Iterations 1
GAMG:  Solving for p, Initial residual = 0.00748468, Final residual = 0.000603925, No Iterations 1
time step continuity errors : sum local = 5.57252e-09, global = -2.51491e-12, cumulative = 8.83356e-07
GAMG:  Solving for p, Initial residual = 0.000935207, Final residual = 7.63867e-07, No Iterations 7
time step continuity errors : sum local = 7.02025e-12, global = -1.12111e-12, cumulative = 8.83355e-07
ExecutionTime = 371.76 s  ClockTime = 391 s

Time = 0.4

Courant Number mean: 0.00423264 max: 0.199774
smoothSolver:  Solving for Ux, Initial residual = 0.000313745, Final residual = 8.28743e-06, No Iterations 1
smoothSolver:  Solving for Uy, Initial residual = 0.00330893, Final residual = 6.60119e-06, No Iterations 2
smoothSolver:  Solving for Uz, Initial residual = 0.000148267, Final residual = 3.59912e-06, No Iterations 1
GAMG:  Solving for p, Initial residual = 0.00753968, Final residual = 0.000651646, No Iterations 1
time step continuity errors : sum local = 5.95754e-09, global = -1.5787e-12, cumulative = 8.83353e-07
GAMG:  Solving for p, Initial residual = 0.00101125, Final residual = 6.06746e-07, No Iterations 7
time step continuity errors : sum local = 5.52205e-12, global = 3.09838e-13, cumulative = 8.83354e-07
ExecutionTime = 376.23 s  ClockTime = 396 s

Time = 0.405

Courant Number mean: 0.00423367 max: 0.19976
smoothSolver:  Solving for Ux, Initial residual = 0.000313093, Final residual = 8.24839e-06, No Iterations 1
smoothSolver:  Solving for Uy, Initial residual = 0.00326761, Final residual = 6.52678e-06, No Iterations 2
smoothSolver:  Solving for Uz, Initial residual = 0.000147768, Final residual = 3.59092e-06, No Iterations 1
GAMG:  Solving for p, Initial residual = 0.0067129, Final residual = 0.000530384, No Iterations 1
time step continuity errors : sum local = 4.80973e-09, global = 1.59206e-12, cumulative = 8.83355e-07
GAMG:  Solving for p, Initial residual = 0.000786282, Final residual = 8.82806e-07, No Iterations 6
time step continuity errors : sum local = 7.9777e-12, global = 1.55481e-12, cumulative = 8.83357e-07
ExecutionTime = 380.65 s  ClockTime = 401 s

Time = 0.41

Courant Number mean: 0.00423469 max: 0.200387
smoothSolver:  Solving for Ux, Initial residual = 0.000312439, Final residual = 8.20819e-06, No Iterations 1
smoothSolver:  Solving for Uy, Initial residual = 0.00323032, Final residual = 6.45908e-06, No Iterations 2
smoothSolver:  Solving for Uz, Initial residual = 0.000147493, Final residual = 3.58928e-06, No Iterations 1
GAMG:  Solving for p, Initial residual = 0.00666451, Final residual = 0.00050319, No Iterations 1
time step continuity errors : sum local = 4.53209e-09, global = 2.61796e-12, cumulative = 8.83359e-07
GAMG:  Solving for p, Initial residual = 0.000755899, Final residual = 9.76751e-07, No Iterations 6
time step continuity errors : sum local = 8.76583e-12, global = 5.06161e-14, cumulative = 8.83359e-07
ExecutionTime = 385.03 s  ClockTime = 405 s

Time = 0.415

Courant Number mean: 0.0042357 max: 0.200837
smoothSolver:  Solving for Ux, Initial residual = 0.000311999, Final residual = 8.1776e-06, No Iterations 1
smoothSolver:  Solving for Uy, Initial residual = 0.00319917, Final residual = 6.39732e-06, No Iterations 2
smoothSolver:  Solving for Uz, Initial residual = 0.000147418, Final residual = 3.58719e-06, No Iterations 1
GAMG:  Solving for p, Initial residual = 0.0067193, Final residual = 0.000502512, No Iterations 1
time step continuity errors : sum local = 4.4931e-09, global = -1.5922e-12, cumulative = 8.83358e-07
GAMG:  Solving for p, Initial residual = 0.000781201, Final residual = 5.50784e-07, No Iterations 7
time step continuity errors : sum local = 4.90669e-12, global = -8.13125e-13, cumulative = 8.83357e-07
ExecutionTime = 389.45 s  ClockTime = 410 s

Time = 0.42

Courant Number mean: 0.00423669 max: 0.201224
smoothSolver:  Solving for Ux, Initial residual = 0.000311845, Final residual = 8.17256e-06, No Iterations 1
smoothSolver:  Solving for Uy, Initial residual = 0.00316878, Final residual = 6.33474e-06, No Iterations 2
smoothSolver:  Solving for Uz, Initial residual = 0.000147385, Final residual = 3.5796e-06, No Iterations 1
GAMG:  Solving for p, Initial residual = 0.00662598, Final residual = 0.000495293, No Iterations 1
time step continuity errors : sum local = 4.39511e-09, global = -1.79464e-12, cumulative = 8.83355e-07
GAMG:  Solving for p, Initial residual = 0.000758369, Final residual = 5.71821e-07, No Iterations 7
time step continuity errors : sum local = 5.05655e-12, global = -7.9773e-13, cumulative = 8.83354e-07
ExecutionTime = 393.94 s  ClockTime = 415 s

Time = 0.425

Courant Number mean: 0.00423769 max: 0.201501
smoothSolver:  Solving for Ux, Initial residual = 0.00031168, Final residual = 8.15822e-06, No Iterations 1
smoothSolver:  Solving for Uy, Initial residual = 0.00313673, Final residual = 6.26483e-06, No Iterations 2
smoothSolver:  Solving for Uz, Initial residual = 0.000147412, Final residual = 3.5712e-06, No Iterations 1
GAMG:  Solving for p, Initial residual = 0.00688611, Final residual = 0.000517745, No Iterations 1
time step continuity errors : sum local = 4.56079e-09, global = -9.33113e-13, cumulative = 8.83353e-07
GAMG:  Solving for p, Initial residual = 0.000858279, Final residual = 8.75114e-07, No Iterations 6
time step continuity errors : sum local = 7.68155e-12, global = -8.45526e-13, cumulative = 8.83353e-07
ExecutionTime = 398.47 s  ClockTime = 419 s

Time = 0.43

Courant Number mean: 0.00423867 max: 0.202499
smoothSolver:  Solving for Ux, Initial residual = 0.000311687, Final residual = 8.15114e-06, No Iterations 1
smoothSolver:  Solving for Uy, Initial residual = 0.00310463, Final residual = 6.19513e-06, No Iterations 2
smoothSolver:  Solving for Uz, Initial residual = 0.000147237, Final residual = 3.55837e-06, No Iterations 1
GAMG:  Solving for p, Initial residual = 0.00688151, Final residual = 0.000532544, No Iterations 1
time step continuity errors : sum local = 4.65889e-09, global = -1.04237e-12, cumulative = 8.83352e-07
GAMG:  Solving for p, Initial residual = 0.000824389, Final residual = 7.05675e-07, No Iterations 7
time step continuity errors : sum local = 6.15355e-12, global = -9.56873e-13, cumulative = 8.83351e-07
ExecutionTime = 402.89 s  ClockTime = 424 s

Time = 0.435

Courant Number mean: 0.00423965 max: 0.203489
smoothSolver:  Solving for Ux, Initial residual = 0.000311604, Final residual = 8.13299e-06, No Iterations 1
smoothSolver:  Solving for Uy, Initial residual = 0.00307394, Final residual = 6.11716e-06, No Iterations 2
smoothSolver:  Solving for Uz, Initial residual = 0.000147182, Final residual = 3.54972e-06, No Iterations 1
GAMG:  Solving for p, Initial residual = 0.00670062, Final residual = 0.0005198, No Iterations 1
time step continuity errors : sum local = 4.51685e-09, global = -1.21011e-12, cumulative = 8.83349e-07
GAMG:  Solving for p, Initial residual = 0.000808842, Final residual = 5.68536e-07, No Iterations 7
time step continuity errors : sum local = 4.9261e-12, global = -7.9473e-13, cumulative = 8.83349e-07
ExecutionTime = 407.36 s  ClockTime = 429 s

Time = 0.44

Courant Number mean: 0.00424062 max: 0.204325
smoothSolver:  Solving for Ux, Initial residual = 0.000311559, Final residual = 8.11446e-06, No Iterations 1
smoothSolver:  Solving for Uy, Initial residual = 0.00304482, Final residual = 6.06351e-06, No Iterations 2
smoothSolver:  Solving for Uz, Initial residual = 0.000147177, Final residual = 3.54369e-06, No Iterations 1
GAMG:  Solving for p, Initial residual = 0.0070856, Final residual = 0.0005453, No Iterations 1
time step continuity errors : sum local = 4.70727e-09, global = -7.7314e-13, cumulative = 8.83348e-07
GAMG:  Solving for p, Initial residual = 0.00094484, Final residual = 6.75702e-07, No Iterations 7
time step continuity errors : sum local = 5.81374e-12, global = -9.03541e-13, cumulative = 8.83347e-07
ExecutionTime = 411.82 s  ClockTime = 433 s

Time = 0.445

Courant Number mean: 0.00424158 max: 0.20505
smoothSolver:  Solving for Ux, Initial residual = 0.000311535, Final residual = 8.09314e-06, No Iterations 1
smoothSolver:  Solving for Uy, Initial residual = 0.00301654, Final residual = 6.01237e-06, No Iterations 2
smoothSolver:  Solving for Uz, Initial residual = 0.000147234, Final residual = 3.53493e-06, No Iterations 1
GAMG:  Solving for p, Initial residual = 0.00696726, Final residual = 0.000540135, No Iterations 1
time step continuity errors : sum local = 4.63131e-09, global = -1.16285e-12, cumulative = 8.83346e-07
GAMG:  Solving for p, Initial residual = 0.00088672, Final residual = 7.29294e-07, No Iterations 7
time step continuity errors : sum local = 6.23461e-12, global = -9.64384e-13, cumulative = 8.83345e-07
ExecutionTime = 416.27 s  ClockTime = 438 s

Time = 0.45

Courant Number mean: 0.00424254 max: 0.205669
smoothSolver:  Solving for Ux, Initial residual = 0.000311576, Final residual = 8.07441e-06, No Iterations 1
smoothSolver:  Solving for Uy, Initial residual = 0.0029879, Final residual = 5.95827e-06, No Iterations 2
smoothSolver:  Solving for Uz, Initial residual = 0.00014723, Final residual = 3.5262e-06, No Iterations 1
GAMG:  Solving for p, Initial residual = 0.00728718, Final residual = 0.000589281, No Iterations 1
time step continuity errors : sum local = 5.0165e-09, global = -1.17456e-12, cumulative = 8.83344e-07
GAMG:  Solving for p, Initial residual = 0.00102144, Final residual = 7.1378e-07, No Iterations 7
time step continuity errors : sum local = 6.05473e-12, global = -9.06984e-13, cumulative = 8.83343e-07
ExecutionTime = 420.76 s  ClockTime = 443 s

Time = 0.455

Courant Number mean: 0.00424352 max: 0.206172
smoothSolver:  Solving for Ux, Initial residual = 0.00031145, Final residual = 8.05322e-06, No Iterations 1
smoothSolver:  Solving for Uy, Initial residual = 0.00295732, Final residual = 5.90421e-06, No Iterations 2
smoothSolver:  Solving for Uz, Initial residual = 0.000147372, Final residual = 3.52409e-06, No Iterations 1
GAMG:  Solving for p, Initial residual = 0.00736951, Final residual = 0.00063325, No Iterations 1
time step continuity errors : sum local = 5.34866e-09, global = -1.04443e-12, cumulative = 8.83342e-07
GAMG:  Solving for p, Initial residual = 0.00094343, Final residual = 4.55421e-07, No Iterations 7
time step continuity errors : sum local = 3.83232e-12, global = 1.14457e-12, cumulative = 8.83343e-07
ExecutionTime = 425.24 s  ClockTime = 447 s

Time = 0.46

Courant Number mean: 0.0042445 max: 0.206542
smoothSolver:  Solving for Ux, Initial residual = 0.000310657, Final residual = 8.02729e-06, No Iterations 1
smoothSolver:  Solving for Uy, Initial residual = 0.00292533, Final residual = 5.83823e-06, No Iterations 2
smoothSolver:  Solving for Uz, Initial residual = 0.000146902, Final residual = 3.51375e-06, No Iterations 1
GAMG:  Solving for p, Initial residual = 0.00631056, Final residual = 0.000495174, No Iterations 1
time step continuity errors : sum local = 4.1562e-09, global = 3.08697e-12, cumulative = 8.83346e-07
GAMG:  Solving for p, Initial residual = 0.00072853, Final residual = 8.40701e-07, No Iterations 6
time step continuity errors : sum local = 7.03699e-12, global = 1.89752e-12, cumulative = 8.83348e-07
ExecutionTime = 429.57 s  ClockTime = 452 s

Time = 0.465

Courant Number mean: 0.00424548 max: 0.206779
smoothSolver:  Solving for Ux, Initial residual = 0.000309802, Final residual = 7.99981e-06, No Iterations 1
smoothSolver:  Solving for Uy, Initial residual = 0.0028951, Final residual = 5.76774e-06, No Iterations 2
smoothSolver:  Solving for Uz, Initial residual = 0.000146323, Final residual = 3.5003e-06, No Iterations 1
GAMG:  Solving for p, Initial residual = 0.00676557, Final residual = 0.000563644, No Iterations 1
time step continuity errors : sum local = 4.70834e-09, global = 2.37847e-12, cumulative = 8.8335e-07
GAMG:  Solving for p, Initial residual = 0.000831881, Final residual = 7.76141e-07, No Iterations 7
time step continuity errors : sum local = 6.46732e-12, global = -1.29318e-12, cumulative = 8.83349e-07
ExecutionTime = 434.04 s  ClockTime = 458 s

Time = 0.47

Courant Number mean: 0.00424646 max: 0.206896
smoothSolver:  Solving for Ux, Initial residual = 0.000310496, Final residual = 7.99218e-06, No Iterations 1
smoothSolver:  Solving for Uy, Initial residual = 0.0028655, Final residual = 5.69395e-06, No Iterations 2
smoothSolver:  Solving for Uz, Initial residual = 0.000147169, Final residual = 3.50468e-06, No Iterations 1
GAMG:  Solving for p, Initial residual = 0.00695934, Final residual = 0.00057447, No Iterations 1
time step continuity errors : sum local = 4.76913e-09, global = -4.63632e-12, cumulative = 8.83344e-07
GAMG:  Solving for p, Initial residual = 0.000897187, Final residual = 7.13651e-07, No Iterations 7
time step continuity errors : sum local = 5.90746e-12, global = -1.08798e-12, cumulative = 8.83343e-07
ExecutionTime = 438.48 s  ClockTime = 467 s

Time = 0.475

Courant Number mean: 0.00424747 max: 0.20696
smoothSolver:  Solving for Ux, Initial residual = 0.000310841, Final residual = 7.97822e-06, No Iterations 1
[...]
smoothSolver:  Solving for Uy, Initial residual = 1.3436e-12, Final residual = 1.3436e-12, No Iterations 0
smoothSolver:  Solving for Uz, Initial residual = 6.19132e-13, Final residual = 6.19132e-13, No Iterations 0
GAMG:  Solving for p, Initial residual = 0.00685546, Final residual = 0.000215757, No Iterations 2
time step continuity errors : sum local = 8.75678e-10, global = -3.37064e-12, cumulative = 8.90305e-07
GAMG:  Solving for p, Initial residual = 0.00380501, Final residual = 7.37376e-07, No Iterations 8
time step continuity errors : sum local = 2.99237e-12, global = 6.59223e-13, cumulative = 8.90305e-07
ExecutionTime = 13502.5 s  ClockTime = 14148 s

Time = 16.28

Courant Number mean: 0.00891051 max: 0.2408
smoothSolver:  Solving for Ux, Initial residual = 0.000451434, Final residual = 8.18191e-06, No Iterations 1
smoothSolver:  Solving for Uy, Initial residual = 1.17385e-12, Final residual = 1.17385e-12, No Iterations 0
smoothSolver:  Solving for Uz, Initial residual = 5.40719e-13, Final residual = 5.40719e-13, No Iterations 0
GAMG:  Solving for p, Initial residual = 0.00644372, Final residual = 0.000207691, No Iterations 2
time step continuity errors : sum local = 8.4255e-10, global = 4.40747e-12, cumulative = 8.9031e-07
GAMG:  Solving for p, Initial residual = 0.00380157, Final residual = 7.57559e-07, No Iterations 8
time step continuity errors : sum local = 3.07299e-12, global = 8.37992e-13, cumulative = 8.9031e-07
ExecutionTime = 13506.6 s  ClockTime = 14153 s

Time = 16.285

Courant Number mean: 0.00891251 max: 0.240805
smoothSolver:  Solving for Ux, Initial residual = 0.000451321, Final residual = 8.17863e-06, No Iterations 1
smoothSolver:  Solving for Uy, Initial residual = 1.04178e-12, Final residual = 1.04178e-12, No Iterations 0
smoothSolver:  Solving for Uz, Initial residual = 4.83956e-13, Final residual = 4.83956e-13, No Iterations 0
GAMG:  Solving for p, Initial residual = 0.00644781, Final residual = 0.000215548, No Iterations 2
time step continuity errors : sum local = 8.7409e-10, global = -2.10469e-12, cumulative = 8.90308e-07
GAMG:  Solving for p, Initial residual = 0.00379363, Final residual = 7.84281e-07, No Iterations 8
time step continuity errors : sum local = 3.17993e-12, global = 7.35949e-13, cumulative = 8.90309e-07
ExecutionTime = 13510.8 s  ClockTime = 14157 s

Time = 16.29

Courant Number mean: 0.0089145 max: 0.24081
smoothSolver:  Solving for Ux, Initial residual = 0.00045122, Final residual = 8.17421e-06, No Iterations 1
smoothSolver:  Solving for Uy, Initial residual = 1.04079e-12, Final residual = 1.04079e-12, No Iterations 0
smoothSolver:  Solving for Uz, Initial residual = 4.83991e-13, Final residual = 4.83991e-13, No Iterations 0
GAMG:  Solving for p, Initial residual = 0.00619187, Final residual = 0.000209454, No Iterations 2
time step continuity errors : sum local = 8.4941e-10, global = 5.69686e-12, cumulative = 8.90315e-07
GAMG:  Solving for p, Initial residual = 0.00377514, Final residual = 7.41036e-07, No Iterations 8
time step continuity errors : sum local = 3.00615e-12, global = 4.87017e-13, cumulative = 8.90315e-07
ExecutionTime = 13514.9 s  ClockTime = 14161 s

Time = 16.295

Courant Number mean: 0.0089165 max: 0.240815
smoothSolver:  Solving for Ux, Initial residual = 0.000451151, Final residual = 8.16805e-06, No Iterations 1
smoothSolver:  Solving for Uy, Initial residual = 1.04027e-12, Final residual = 1.04027e-12, No Iterations 0
smoothSolver:  Solving for Uz, Initial residual = 4.84045e-13, Final residual = 4.84045e-13, No Iterations 0
GAMG:  Solving for p, Initial residual = 0.0063067, Final residual = 0.000210893, No Iterations 2
time step continuity errors : sum local = 8.5533e-10, global = -7.34417e-12, cumulative = 8.90308e-07
GAMG:  Solving for p, Initial residual = 0.00377683, Final residual = 7.45661e-07, No Iterations 8
time step continuity errors : sum local = 3.0232e-12, global = 3.7965e-13, cumulative = 8.90308e-07
ExecutionTime = 13518.9 s  ClockTime = 14166 s

Time = 16.3

Courant Number mean: 0.00891849 max: 0.24082
smoothSolver:  Solving for Ux, Initial residual = 0.000451081, Final residual = 8.16396e-06, No Iterations 1
smoothSolver:  Solving for Uy, Initial residual = 9.35755e-13, Final residual = 9.35755e-13, No Iterations 0
smoothSolver:  Solving for Uz, Initial residual = 4.35278e-13, Final residual = 4.35278e-13, No Iterations 0
GAMG:  Solving for p, Initial residual = 0.00644039, Final residual = 0.000218717, No Iterations 2
time step continuity errors : sum local = 8.86293e-10, global = 1.78114e-11, cumulative = 8.90326e-07
GAMG:  Solving for p, Initial residual = 0.00377981, Final residual = 7.73989e-07, No Iterations 8
time step continuity errors : sum local = 3.13614e-12, global = 8.05131e-13, cumulative = 8.90327e-07
ExecutionTime = 13523 s  ClockTime = 14170 s

Time = 16.305

Courant Number mean: 0.00892048 max: 0.240825
smoothSolver:  Solving for Ux, Initial residual = 0.000451006, Final residual = 8.15695e-06, No Iterations 1
smoothSolver:  Solving for Uy, Initial residual = 9.35436e-13, Final residual = 9.35436e-13, No Iterations 0
smoothSolver:  Solving for Uz, Initial residual = 4.35284e-13, Final residual = 4.35284e-13, No Iterations 0
GAMG:  Solving for p, Initial residual = 0.00659354, Final residual = 0.000224008, No Iterations 2
time step continuity errors : sum local = 9.07689e-10, global = -3.36684e-11, cumulative = 8.90293e-07
GAMG:  Solving for p, Initial residual = 0.00376989, Final residual = 7.38208e-07, No Iterations 8
time step continuity errors : sum local = 2.99044e-12, global = -7.09535e-14, cumulative = 8.90293e-07
ExecutionTime = 13527.1 s  ClockTime = 14174 s

Time = 16.31

Courant Number mean: 0.00892248 max: 0.240829
smoothSolver:  Solving for Ux, Initial residual = 0.000450994, Final residual = 8.15066e-06, No Iterations 1
smoothSolver:  Solving for Uy, Initial residual = 9.34821e-13, Final residual = 9.34821e-13, No Iterations 0
smoothSolver:  Solving for Uz, Initial residual = 4.35269e-13, Final residual = 4.35269e-13, No Iterations 0
GAMG:  Solving for p, Initial residual = 0.00663338, Final residual = 0.000230367, No Iterations 2
time step continuity errors : sum local = 9.32929e-10, global = 6.87121e-11, cumulative = 8.90362e-07
GAMG:  Solving for p, Initial residual = 0.00377934, Final residual = 7.79568e-07, No Iterations 8
time step continuity errors : sum local = 3.15894e-12, global = 1.19276e-12, cumulative = 8.90363e-07
ExecutionTime = 13531.2 s  ClockTime = 14178 s

Time = 16.315

Courant Number mean: 0.00892448 max: 0.240834
smoothSolver:  Solving for Ux, Initial residual = 0.000450998, Final residual = 8.14822e-06, No Iterations 1
smoothSolver:  Solving for Uy, Initial residual = 8.48978e-13, Final residual = 8.48978e-13, No Iterations 0
smoothSolver:  Solving for Uz, Initial residual = 3.95439e-13, Final residual = 3.95439e-13, No Iterations 0
GAMG:  Solving for p, Initial residual = 0.00685041, Final residual = 0.000232966, No Iterations 2
time step continuity errors : sum local = 9.44462e-10, global = -1.47251e-10, cumulative = 8.90216e-07
GAMG:  Solving for p, Initial residual = 0.00379856, Final residual = 3.38924e-07, No Iterations 8
time step continuity errors : sum local = 1.37225e-12, global = -8.70302e-13, cumulative = 8.90215e-07
ExecutionTime = 13535.3 s  ClockTime = 14183 s

Time = 16.32

Courant Number mean: 0.00892649 max: 0.240839
smoothSolver:  Solving for Ux, Initial residual = 0.000451286, Final residual = 8.14365e-06, No Iterations 1
smoothSolver:  Solving for Uy, Initial residual = 8.48403e-13, Final residual = 8.48403e-13, No Iterations 0
smoothSolver:  Solving for Uz, Initial residual = 3.9533e-13, Final residual = 3.9533e-13, No Iterations 0
GAMG:  Solving for p, Initial residual = 0.00716774, Final residual = 0.000257942, No Iterations 2
time step continuity errors : sum local = 1.04294e-09, global = 3.16517e-10, cumulative = 8.90531e-07
GAMG:  Solving for p, Initial residual = 0.00384025, Final residual = 3.59103e-07, No Iterations 7
time step continuity errors : sum local = 1.45788e-12, global = 7.07283e-13, cumulative = 8.90532e-07
ExecutionTime = 13539.3 s  ClockTime = 14187 s

Time = 16.325

Courant Number mean: 0.00892848 max: 0.240844
smoothSolver:  Solving for Ux, Initial residual = 0.000451434, Final residual = 8.1414e-06, No Iterations 1
smoothSolver:  Solving for Uy, Initial residual = 7.77082e-13, Final residual = 7.77082e-13, No Iterations 0
smoothSolver:  Solving for Uz, Initial residual = 3.62893e-13, Final residual = 3.62893e-13, No Iterations 0
GAMG:  Solving for p, Initial residual = 0.00802716, Final residual = 0.00040028, No Iterations 2
time step continuity errors : sum local = 1.63145e-09, global = -6.90782e-10, cumulative = 8.89841e-07
GAMG:  Solving for p, Initial residual = 0.00402349, Final residual = 6.58379e-07, No Iterations 6
time step continuity errors : sum local = 2.65619e-12, global = -1.71236e-12, cumulative = 8.8984e-07
ExecutionTime = 13543.2 s  ClockTime = 14191 s

Time = 16.33

Courant Number mean: 0.00893052 max: 0.240849
smoothSolver:  Solving for Ux, Initial residual = 0.000454407, Final residual = 8.13593e-06, No Iterations 1
smoothSolver:  Solving for Uy, Initial residual = 7.76287e-13, Final residual = 7.76287e-13, No Iterations 0
smoothSolver:  Solving for Uz, Initial residual = 3.63702e-13, Final residual = 3.63702e-13, No Iterations 0
GAMG:  Solving for p, Initial residual = 0.00976509, Final residual = 0.000841226, No Iterations 2
time step continuity errors : sum local = 3.36851e-09, global = 2.03511e-09, cumulative = 8.91875e-07
GAMG:  Solving for p, Initial residual = 0.00434927, Final residual = 4.82871e-07, No Iterations 7
time step continuity errors : sum local = 1.9953e-12, global = 9.37888e-13, cumulative = 8.91876e-07
ExecutionTime = 13547.2 s  ClockTime = 14195 s

Time = 16.335

Courant Number mean: 0.00893247 max: 0.240853
smoothSolver:  Solving for Ux, Initial residual = 0.000457818, Final residual = 8.12941e-06, No Iterations 1
smoothSolver:  Solving for Uy, Initial residual = 8.45646e-13, Final residual = 8.45646e-13, No Iterations 0
smoothSolver:  Solving for Uz, Initial residual = 4.05807e-13, Final residual = 4.05807e-13, No Iterations 0
GAMG:  Solving for p, Initial residual = 0.022882, Final residual = 0.00216092, No Iterations 1
time step continuity errors : sum local = 9.29908e-09, global = -1.94791e-09, cumulative = 8.89928e-07
GAMG:  Solving for p, Initial residual = 0.00517592, Final residual = 5.20993e-07, No Iterations 8
time step continuity errors : sum local = 2.07455e-12, global = -7.50151e-13, cumulative = 8.89927e-07
ExecutionTime = 13551.2 s  ClockTime = 14199 s

Time = 16.34

Courant Number mean: 0.00893452 max: 0.240858
smoothSolver:  Solving for Ux, Initial residual = 0.00046218, Final residual = 8.12884e-06, No Iterations 1
smoothSolver:  Solving for Uy, Initial residual = 8.44397e-13, Final residual = 8.44397e-13, No Iterations 0
smoothSolver:  Solving for Uz, Initial residual = 4.02614e-13, Final residual = 4.02614e-13, No Iterations 0
GAMG:  Solving for p, Initial residual = 0.0173636, Final residual = 0.00145995, No Iterations 3
time step continuity errors : sum local = 5.72306e-09, global = 3.84083e-09, cumulative = 8.93768e-07
GAMG:  Solving for p, Initial residual = 0.00442621, Final residual = 8.36664e-07, No Iterations 7
time step continuity errors : sum local = 3.92561e-12, global = 1.16668e-12, cumulative = 8.93769e-07
ExecutionTime = 13555.3 s  ClockTime = 14204 s

Time = 16.345

Courant Number mean: 0.00893653 max: 0.240862
smoothSolver:  Solving for Ux, Initial residual = 0.000526344, Final residual = 8.13975e-06, No Iterations 1
smoothSolver:  Solving for Uy, Initial residual = 6.18221e-13, Final residual = 6.18221e-13, No Iterations 0
smoothSolver:  Solving for Uz, Initial residual = 3.33113e-13, Final residual = 3.33113e-13, No Iterations 0
GAMG:  Solving for p, Initial residual = 0.0921008, Final residual = 0.00461472, No Iterations 1
time step continuity errors : sum local = 2.62091e-08, global = -4.50582e-09, cumulative = 8.89263e-07
GAMG:  Solving for p, Initial residual = 0.0102049, Final residual = 6.01377e-07, No Iterations 10
time step continuity errors : sum local = 2.20455e-12, global = -2.90406e-13, cumulative = 8.89263e-07
ExecutionTime = 13559.6 s  ClockTime = 14208 s

Time = 16.35

Courant Number mean: 0.008939 max: 0.240868
smoothSolver:  Solving for Ux, Initial residual = 0.000547154, Final residual = 8.17618e-06, No Iterations 1
smoothSolver:  Solving for Uy, Initial residual = 6.17417e-13, Final residual = 6.17417e-13, No Iterations 0
smoothSolver:  Solving for Uz, Initial residual = 3.26803e-13, Final residual = 3.26803e-13, No Iterations 0
GAMG:  Solving for p, Initial residual = 0.0700596, Final residual = 0.00348624, No Iterations 4
time step continuity errors : sum local = 1.40248e-08, global = 9.63353e-09, cumulative = 8.98896e-07
GAMG:  Solving for p, Initial residual = 0.00291875, Final residual = 6.27954e-07, No Iterations 7
time step continuity errors : sum local = 6.28124e-12, global = 2.69819e-12, cumulative = 8.98899e-07
ExecutionTime = 13563.8 s  ClockTime = 14212 s

Time = 16.355

Courant Number mean: 0.00894081 max: 0.240871
smoothSolver:  Solving for Ux, Initial residual = 0.00112787, Final residual = 8.74151e-06, No Iterations 1
smoothSolver:  Solving for Uy, Initial residual = 5.43985e-13, Final residual = 5.43985e-13, No Iterations 0
smoothSolver:  Solving for Uz, Initial residual = 5.92637e-13, Final residual = 5.92637e-13, No Iterations 0
GAMG:  Solving for p, Initial residual = 0.231071, Final residual = 0.00926347, No Iterations 1
time step continuity errors : sum local = 1.42065e-07, global = -3.55936e-09, cumulative = 8.9534e-07
GAMG:  Solving for p, Initial residual = 0.0187826, Final residual = 8.48734e-07, No Iterations 11
time step continuity errors : sum local = 6.96271e-12, global = 1.80641e-12, cumulative = 8.95342e-07
ExecutionTime = 13568.1 s  ClockTime = 14217 s

Time = 16.36

Courant Number mean: 0.00894472 max: 0.24088
smoothSolver:  Solving for Ux, Initial residual = 0.000837453, Final residual = 8.70776e-06, No Iterations 1
smoothSolver:  Solving for Uy, Initial residual = 5.43153e-13, Final residual = 5.43153e-13, No Iterations 0
smoothSolver:  Solving for Uz, Initial residual = 4.31057e-13, Final residual = 4.31057e-13, No Iterations 0
GAMG:  Solving for p, Initial residual = 0.128066, Final residual = 0.0067655, No Iterations 4
time step continuity errors : sum local = 5.11272e-08, global = 3.09408e-08, cumulative = 9.26282e-07
GAMG:  Solving for p, Initial residual = 0.00298763, Final residual = 3.22491e-07, No Iterations 8
time step continuity errors : sum local = 7.38167e-12, global = 2.63024e-12, cumulative = 9.26285e-07
ExecutionTime = 13572.4 s  ClockTime = 14221 s

Time = 16.365

Courant Number mean: 0.00894732 max: 0.240878
smoothSolver:  Solving for Ux, Initial residual = 0.00277071, Final residual = 2.80357e-07, No Iterations 2
smoothSolver:  Solving for Uy, Initial residual = 3.54449e-13, Final residual = 3.54449e-13, No Iterations 0
smoothSolver:  Solving for Uz, Initial residual = 8.07977e-13, Final residual = 8.07977e-13, No Iterations 0
GAMG:  Solving for p, Initial residual = 0.277011, Final residual = 0.0124446, No Iterations 1
time step continuity errors : sum local = 4.81361e-07, global = 3.81421e-09, cumulative = 9.30099e-07
GAMG:  Solving for p, Initial residual = 0.0175731, Final residual = 7.11641e-07, No Iterations 12
time step continuity errors : sum local = 2.04074e-11, global = -1.00564e-13, cumulative = 9.30099e-07
ExecutionTime = 13576.8 s  ClockTime = 14226 s

Time = 16.37

Courant Number mean: 0.00895782 max: 0.240898
smoothSolver:  Solving for Ux, Initial residual = 0.00246944, Final residual = 3.02138e-07, No Iterations 2
smoothSolver:  Solving for Uy, Initial residual = 3.54028e-13, Final residual = 3.54028e-13, No Iterations 0
smoothSolver:  Solving for Uz, Initial residual = 6.59298e-13, Final residual = 6.59298e-13, No Iterations 0
GAMG:  Solving for p, Initial residual = 0.176451, Final residual = 0.00866257, No Iterations 4
time step continuity errors : sum local = 2.45083e-07, global = 1.48531e-07, cumulative = 1.07863e-06
GAMG:  Solving for p, Initial residual = 0.00230945, Final residual = 5.72099e-07, No Iterations 10
time step continuity errors : sum local = 7.69699e-11, global = -1.67922e-11, cumulative = 1.07861e-06
ExecutionTime = 13581.3 s  ClockTime = 14231 s

Time = 16.375

Courant Number mean: 0.0089806 max: 0.240871
smoothSolver:  Solving for Ux, Initial residual = 0.0161171, Final residual = 2.01274e-06, No Iterations 2
smoothSolver:  Solving for Uy, Initial residual = 2.48047e-13, Final residual = 2.48047e-13, No Iterations 0
smoothSolver:  Solving for Uz, Initial residual = 2.08894e-12, Final residual = 2.08894e-12, No Iterations 0
GAMG:  Solving for p, Initial residual = 0.30477, Final residual = 0.0105669, No Iterations 1
time step continuity errors : sum local = 2.44511e-06, global = -2.53909e-07, cumulative = 8.24704e-07
GAMG:  Solving for p, Initial residual = 0.0188802, Final residual = 9.21459e-07, No Iterations 12
time step continuity errors : sum local = 1.3087e-10, global = -1.90342e-11, cumulative = 8.24685e-07
ExecutionTime = 13585.7 s  ClockTime = 14235 s

Time = 16.38

Courant Number mean: 0.00903344 max: 0.240966
smoothSolver:  Solving for Ux, Initial residual = 0.0120348, Final residual = 9.83813e-06, No Iterations 2
smoothSolver:  Solving for Uy, Initial residual = 2.482e-13, Final residual = 2.482e-13, No Iterations 0
smoothSolver:  Solving for Uz, Initial residual = 1.58907e-12, Final residual = 1.58907e-12, No Iterations 0
GAMG:  Solving for p, Initial residual = 0.192811, Final residual = 0.0100142, No Iterations 4
time step continuity errors : sum local = 1.5562e-06, global = 7.73976e-07, cumulative = 1.59866e-06
GAMG:  Solving for p, Initial residual = 0.00468866, Final residual = 9.00823e-07, No Iterations 11
time step continuity errors : sum local = 7.07169e-10, global = 2.12443e-11, cumulative = 1.59868e-06
ExecutionTime = 13590.3 s  ClockTime = 14240 s

Time = 16.385

Courant Number mean: 0.00922415 max: 0.524178
smoothSolver:  Solving for Ux, Initial residual = 0.0868033, Final residual = 4.28994e-06, No Iterations 4
smoothSolver:  Solving for Uy, Initial residual = 1.35459e-13, Final residual = 1.35459e-13, No Iterations 0
smoothSolver:  Solving for Uz, Initial residual = 2.77388e-12, Final residual = 2.77388e-12, No Iterations 0
GAMG:  Solving for p, Initial residual = 0.298287, Final residual = 0.0114891, No Iterations 1
time step continuity errors : sum local = 1.50389e-05, global = -7.48914e-07, cumulative = 8.49768e-07
GAMG:  Solving for p, Initial residual = 0.0200229, Final residual = 7.27069e-07, No Iterations 14
time step continuity errors : sum local = 8.32578e-10, global = 3.7451e-10, cumulative = 8.50143e-07
ExecutionTime = 13594.9 s  ClockTime = 14245 s

Time = 16.39

Courant Number mean: 0.00959507 max: 1.06591
smoothSolver:  Solving for Ux, Initial residual = 0.0723871, Final residual = 2.77592e-06, No Iterations 6
smoothSolver:  Solving for Uy, Initial residual = 1.36816e-13, Final residual = 1.36816e-13, No Iterations 0
smoothSolver:  Solving for Uz, Initial residual = 2.42642e-12, Final residual = 2.42642e-12, No Iterations 0
GAMG:  Solving for p, Initial residual = 0.200592, Final residual = 0.00998196, No Iterations 4
time step continuity errors : sum local = 1.20466e-05, global = 6.01656e-06, cumulative = 6.86671e-06
GAMG:  Solving for p, Initial residual = 0.00716221, Final residual = 8.57095e-07, No Iterations 11
time step continuity errors : sum local = 8.70194e-09, global = -6.37977e-10, cumulative = 6.86607e-06
ExecutionTime = 13599.6 s  ClockTime = 14250 s

Time = 16.395

Courant Number mean: 0.0138399 max: 2.60839
